44
44
C  -0.247085  -0.135076   0.158185
C   0.381695   0.088833   0.504439
C  -0.192450   0.229381   0.079573
C   0.247427  -0.010540  -0.187678
C  -0.493874   0.001425   0.166502
C  -0.029671   0.043859   0.255562
C  -0.011142   0.218347  -0.161778
C   0.015450   0.378747   0.142399
C  -0.034549  -0.008569   0.023430
C  -0.070916   0.197958  -0.292593
C  -0.112274   0.035384  -0.216277
C   0.053839   0.238584  -0.117501
C  -0.088186   0.024677   0.087703
C  -0.058757   0.020503  -0.431129
C  -0.177518  -0.224607   0.064410
C   0.160463  -0.272701   0.005433
C  -0.316217  -0.275250   0.156990
C  -0.109728   0.156370   0.077879
C   0.154064   0.147013   0.149277
C  -0.185250  -0.016840  -0.152760
C  -0.008742   0.035313  -0.097359
C  -0.079795   0.248697   0.456378
C  -0.495511  -0.066107  -0.042823
C  -0.045262  -0.300618  -0.015478
C  -0.465317   0.077506  -0.165870
C  -0.136853  -0.256312   0.160388
C   0.143096   0.264877  -0.002434
C   0.336755  -0.065061   0.145178
C  -0.136778   0.089846   0.347332
C  -0.138480  -0.451485   0.039663
C  -0.128143  -0.025783   0.164406
C  -0.314101   0.115522  -0.302511
C  -0.265025  -0.144229  -0.117917
C  -0.176620  -0.015174   0.079716
C  -0.062026   0.183431  -0.336524
C  -0.216602  -0.212516   0.125689
C  -0.218404   0.292545  -0.227721
C   0.142313   0.108001  -0.076756
C  -0.292335   0.057936   0.013732
C   0.168392  -0.249558   0.027392
C   0.007984   0.212225  -0.094311
C  -0.556277  -0.169230   0.135264
C   0.000912   0.209013   0.044267
C  -0.169935  -0.089166   0.011122
44
44
C  -0.176319   0.112526   0.217389
C   0.102467   0.154844   0.201317
C   0.457550  -0.198016  -0.215212
C  -0.209622   0.055131  -0.194966
C   0.025400  -0.347810   0.377865
C   0.045927  -0.275438  -0.159662
C  -0.365685   0.147754  -0.173212
C  -0.105224   0.199467  -0.379137
C  -0.331170  -0.004562   0.429628
C  -0.049220   0.323771  -0.085277
C  -0.226343   0.158250   0.183677
C   0.091598  -0.208201  -0.338995
C   0.116752  -0.085437  -0.318525
C  -0.088171  -0.246350   0.211052
C  -0.020810   0.172214  -0.107930
C  -0.295634   0.218608  -0.111993
C   0.007372   0.101827  -0.048221
C  -0.205570   0.340910   0.147631
C  -0.082951  -0.191533   0.043320
C  -0.182558   0.105619   0.126344
C  -0.194065  -0.197522  -0.206737
C  -0.275321  -0.375420  -0.485653
C  -0.020574  -0.262388   0.137771
C  -0.273405   0.131936   0.165425
C  -0.151396  -0.128628  -0.312956
C   0.038419   0.145113   0.287720
C  -0.298781  -0.000617   0.008351
C   0.230167   0.273967   0.048411
C   0.506965  -0.346446  -0.164606
C   0.312302   0.460883  -0.383027
C  -0.108014   0.425371  -0.283158
C  -0.474585   0.497490  -0.134488
C   0.189315   0.134170  -0.222934
C  -0.230178   0.267672   0.298454
C   0.049464  -0.362777  -0.027004
C  -0.110965   0.244831  -0.340497
C  -0.121527   0.014067   0.386101
C   0.094328  -0.014892   0.468205
C  -0.039358  -0.233854   0.242536
C   0.107787  -0.129102  -0.126683
C  -0.117134   0.287756   0.074071
C   0.086521   0.405965   0.120681
C  -0.039116   0.182592  -0.155039
C   0.106594   0.279812   0.134005
44
44
C  -0.090356   0.226788   0.199827
C   0.104299   0.034815   0.124475
C   0.380302  -0.332026  -0.267469
C   0.352412   0.158072   0.145340
C   0.026130   0.078122  -0.262837
C  -0.065181  -0.092022   0.024954
C   0.195283   0.321268  -0.251627
C   0.199603   0.001235  -0.163023
C   0.274488   0.588205   0.454415
C  -0.461742  -0.361377   0.189130
C  -0.151427   0.162050   0.138148
C   0.003719   0.196019  -0.388207
C  -0.244523  -0.351879   0.023327
C  -0.156403  -0.364622  -0.102365
C  -0.538902   0.131010   0.088568
C  -0.007584  -0.112619   0.141500
C  -0.268907   0.009946  -0.546105
C   0.498771  -0.100613  -0.220346
C  -0.194876   0.251807   0.382541
C   0.044976  -0.114736  -0.206011
C   0.013738   0.223423  -0.167641
C   0.065090   0.138032   0.093437
C   0.032825   0.007029   0.283517
C   0.162628  -0.133607   0.075506
C   0.212800   0.236455  -0.124752
C   0.035479  -0.139613   0.100748
C   0.276363  -0.272659   0.179235
C  -0.330753  -0.085680   0.174721
C  -0.153724  -0.045551  -0.008199
C   0.084152   0.193182   0.055960
C  -0.245899  -0.076358  -0.066935
C  -0.061445  -0.421959   0.017945
C  -0.082783   0.360063   0.268153
C  -0.533452   0.281023   0.204970
C   0.002073   0.030481  -0.004039
C   0.050837  -0.248515  -0.018917
C   0.111208  -0.337806   0.092021
C  -0.039206   0.024510  -0.337659
C   0.160246  -0.221665   0.109348
C   0.048651   0.111019  -0.154747
C  -0.096860  -0.035608   0.211182
C   0.102334   0.044102  -0.099223
C   0.636657   0.221577  -0.016064
C   0.184883  -0.266054  -0.274304
44
44
C  -0.024347  -0.066190  -0.095024
C  -0.020800   0.192310  -0.036185
C  -0.122046  -0.122314   0.204509
C   0.181318  -0.073942   0.130038
C   0.210223  -0.522125  -0.076325
C   0.092780  -0.070589   0.142132
C  -0.296508  -0.135107  -0.125178
C  -0.113059  -0.188556   0.314031
C   0.460008   0.080708   0.664043
C   0.210261   0.011067  -0.323819
C   0.388718  -0.092660  -0.242969
C   0.058040   0.036641  -0.194987
C  -0.024642  -0.107401  -0.034963
C   0.161693  -0.184669  -0.261127
C   0.485244   0.035484  -0.204170
C   0.110028   0.074746  -0.198481
C   0.224544   0.305513  -0.299116
C  -0.136661  -0.236425  -0.487415
C  -0.327099   0.353355  -0.165564
C   0.260477  -0.145439   0.305650
C  -0.081602  -0.287403  -0.411413
C  -0.043473   0.042786  -0.198015
C  -0.170565  -0.085487   0.169852
C  -0.296309   0.038299   0.035096
C  -0.228033  -0.355765   0.079801
C  -0.155315   0.024648  -0.013659
C   0.137355   0.082602   0.009760
C  -0.062956   0.299930  -0.215845
C   0.042555   0.354380  -0.031004
C   0.039611  -0.170166  -0.122460
C   0.071303   0.243396   0.154146
C  -0.264182  -0.244365  -0.020558
C   0.158384   0.060090   0.488653
C   0.276628  -0.256672  -0.296273
C  -0.055879   0.157894   0.351386
C   0.180404  -0.092558   0.074695
C   0.133575  -0.448373  -0.067999
C   0.062248   0.099462   0.215395
C  -0.151597   0.181263   0.061441
C  -0.228300  -0.060923  -0.133531
C  -0.016578   0.028276   0.145134
C   0.130230  -0.091960   0.099416
C   0.089780  -0.136775  -0.006956
C   0.421713   0.221091  -0.106966
44
44
C   0.324163   0.079564  -0.310063
C  -0.039965  -0.176036   0.248763
C  -0.025480   0.159166   0.117081
C  -0.011592  -0.117902  -0.031295
C   0.076136   0.025329   0.256988
C   0.052321  -0.025768   0.126913
C  -0.094292   0.010897  -0.215196
C   0.382568  -0.346813  -0.069166
C  -0.152470  -0.337806   0.058320
C  -0.227039   0.119451   0.078294
C   0.107412   0.127961   0.414718
C   0.185373   0.025353   0.111624
C   0.220267   0.133213  -0.058010
C   0.082462   0.052805  -0.104610
C   0.024456   0.040629  -0.229690
C  -0.211520   0.340588  -0.364475
C   0.061871   0.311041   0.051448
C   0.060280  -0.178758   0.101928
C  -0.088220  -0.033105  -0.545424
C   0.016571   0.091992   0.004999
C  -0.176724  -0.158639  -0.140904
C  -0.330045  -0.172757   0.493957
C  -0.105531   0.177620   0.315706
C   0.228812   0.005660   0.415226
C   0.030423   0.159402   0.060427
C   0.397103   0.225226  -0.024551
C  -0.215780   0.145700  -0.302090
C   0.162716  -0.067543   0.175761
C  -0.048703   0.247671  -0.062808
C  -0.026273  -0.017549   0.240450
C  -0.357449  -0.272986   0.421047
C  -0.086609   0.014478  -0.172289
C   0.331363  -0.007263   0.224789
C  -0.204836  -0.092896   0.040216
C  -0.204934  -0.118017   0.202664
C   0.026194   0.123494  -0.409840
C   0.075022   0.090275   0.011152
C   0.141831  -0.143782  -0.019969
C  -0.054229   0.103055   0.034788
C  -0.101545   0.320188  -0.152324
C   0.310666   0.241227  -0.416930
C   0.478730   0.003544  -0.302178
C  -0.203176   0.043649  -0.047399
C  -0.212408  -0.052242  -0.147941
44
44
C  -0.058193   0.126954   0.056847
C  -0.129190   0.004427  -0.361632
C   0.347236  -0.107816   0.200262
C   0.293180  -0.084898  -0.055761
C   0.252094  -0.205991  -0.307955
C  -0.219160   0.173339   0.220731
C   0.039794   0.147841  -0.181896
C   0.302019  -0.004013  -0.087224
C  -0.026422   0.047653  -0.016976
C  -0.055140  -0.347841   0.093335
C   0.135441   0.049706  -0.392201
C   0.306389  -0.072939   0.187064
C  -0.035190   0.159387  -0.061286
C  -0.167534   0.227594  -0.054859
C  -0.323555   0.023467  -0.237816
C  -0.184541   0.071045   0.114393
C   0.133200   0.069322   0.173929
C   0.331910   0.143909   0.184301
C   0.153035   0.307031   0.456672
C  -0.104847  -0.165043  -0.322261
C   0.184404  -0.229152  -0.047892
C  -0.062471  -0.170266  -0.136428
C  -0.676853   0.225648   0.286298
C   0.235716   0.267186  -0.261046
C   0.052964  -0.445913   0.073676
C   0.453179   0.194550  -0.254306
C   0.364198   0.086286  -0.131704
C  -0.232115  -0.000564   0.000681
C   0.261692  -0.122616  -0.054683
C  -0.482816   0.146738  -0.089241
C   0.532744  -0.193224   0.000504
C  -0.428577  -0.385026   0.319148
C  -0.375081  -0.168857   0.261355
C   0.030917   0.241397   0.178898
C   0.062170  -0.114431   0.032026
C   0.098541   0.198385   0.121293
C  -0.140130   0.073799   0.156569
C  -0.044993   0.254585  -0.010126
C   0.058991   0.001574  -0.032842
C  -0.064164   0.053909   0.009978
C   0.104143   0.132521   0.342576
C  -0.097891   0.364133   0.470100
C  -0.232084  -0.252641  -0.021793
C  -0.294648   0.050274  -0.048207
44
44
C  -0.197828   0.129455   0.000211
C  -0.135715   0.309105  -0.234470
C  -0.068097   0.073385  -0.009631
C  -0.156149   0.220222   0.024651
C   0.455986  -0.007226  -0.147279
C  -0.026726   0.208778  -0.075130
C   0.010058   0.144375  -0.296437
C   0.306351  -0.123568  -0.208718
C   0.308399  -0.352827  -0.245181
C   0.181884  -0.160981   0.004664
C   0.069541  -0.000411  -0.115850
C  -0.022371   0.128869   0.340652
C  -0.157129  -0.288189  -0.225158
C   0.416174   0.189217  -0.026792
C  -0.084046   0.142683  -0.174037
C   0.429514   0.063641   0.168073
C  -0.098959  -0.454225  -0.012533
C  -0.110559  -0.085192  -0.096956
C   0.145281   0.203229   0.100842
C  -0.418866   0.102059  -0.171930
C  -0.337952  -0.014200   0.074513
C   0.466098  -0.145046   0.183464
C  -0.180989   0.488814   0.104312
C   0.207477  -0.241145   0.230196
C   0.223704   0.056865   0.017476
C   0.174279  -0.244577   0.382664
C  -0.284398   0.158364   0.280718
C  -0.331879  -0.131049   0.127510
C   0.242648   0.058548   0.050623
C   0.008734   0.282551  -0.114173
C  -0.462396   0.139787  -0.095452
C   0.391832  -0.281552  -0.389917
C   0.328992  -0.250084  -0.027566
C   0.318403  -0.372960   0.097862
C   0.002747   0.177764  -0.437680
C  -0.119712  -0.011382   0.066492
C  -0.102347  -0.103584   0.154878
C  -0.128139  -0.102160   0.176197
C  -0.043506  -0.038900  -0.295018
C   0.176038   0.157609  -0.156699
C   0.017877   0.191275  -0.026552
C   0.203264   0.001241  -0.081212
C  -0.335178   0.058732  -0.212858
C  -0.105513  -0.538128  -0.081107
44
44
C   0.073850   0.452886  -0.029865
C   0.116567  -0.100087  -0.082992
C   0.187883   0.062263  -0.114832
C   0.167552   0.135436   0.180252
C   0.257980   0.194072   0.170237
C  -0.096924   0.398170   0.098291
C   0.123109   0.251907  -0.160553
C   0.445318   0.065079  -0.077699
C  -0.063771   0.028705  -0.118542
C  -0.198334  -0.104809  -0.225639
C   0.104529  -0.049612   0.047606
C   0.067558  -0.116888  -0.045024
C  -0.146415  -0.343430   0.033892
C   0.264228  -0.287454  -0.273889
C  -0.055415   0.346891   0.077219
C   0.067653   0.174684   0.153694
C   0.083412   0.285600  -0.397105
C  -0.024347  -0.275087  -0.400594
C  -0.340794  -0.014832  -0.076157
C  -0.112212   0.086543  -0.054211
C   0.095318   0.360420  -0.044343
C   0.205514  -0.188746  -0.065459
C   0.008658   0.299589   0.221557
C  -0.243656   0.055151  -0.023691
C  -0.189240  -0.433814   0.283762
C  -0.143177  -0.089830  -0.176691
C  -0.043480  -0.287338  -0.354948
C   0.223928   0.033958   0.073021
C  -0.144626   0.257538   0.158816
C   0.439054  -0.023675  -0.270481
C   0.292370   0.241602   0.605555
C   0.068677   0.416444   0.460923
C  -0.138538   0.184226  -0.308632
C   0.364471  -0.184071   0.103802
C  -0.043796  -0.159485   0.054608
C   0.022767  -0.352781   0.068259
C   0.218901  -0.237784   0.155267
C   0.035937  -0.045664   0.078814
C  -0.096185  -0.006154   0.214663
C  -0.177481  -0.264341   0.052906
C  -0.182393   0.083462   0.535227
C  -0.170010  -0.200003   0.037500
C   0.051533   0.295844   0.227979
C   0.045943  -0.073341  -0.027079
44
44
C  -0.174505   0.180644  -0.180779
C   0.239420  -0.034303  -0.279144
C   0.072077  -0.066732   0.496307
C   0.094150   0.284467   0.119808
C  -0.278843  -0.181959   0.225063
C   0.110050  -0.100420   0.201287
C  -0.013778   0.034376   0.009942
C  -0.033603   0.070397  -0.216131
C   0.112658   0.314654  -0.300594
C   0.409800   0.052591  -0.192726
C  -0.255808   0.238806  -0.087255
C   0.146009  -0.029708   0.172738
C  -0.106214  -0.033096   0.094725
C  -0.061462   0.193663  -0.179891
C  -0.301516   0.139843   0.360404
C   0.340681  -0.259921   0.060834
C  -0.173877   0.118755   0.036430
C   0.381607  -0.069022  -0.208002
C   0.380582  -0.117667   0.007881
C  -0.114480   0.325499   0.206312
C   0.063907   0.184671   0.216714
C   0.169137  -0.097325  -0.501823
C   0.160773  -0.142200  -0.074752
C  -0.262672   0.321185  -0.023067
C  -0.463548   0.158693  -0.048768
C  -0.024002  -0.051452  -0.288414
C  -0.376659   0.306012   0.443029
C  -0.301097   0.242099  -0.411537
C   0.223531  -0.049983  -0.095317
C   0.249304  -0.274496   0.044223
C  -0.029254   0.279510  -0.307753
C   0.068930  -0.075274   0.125325
C   0.003683  -0.152528  -0.311088
C   0.165773   0.061672  -0.164285
C  -0.004405   0.099878  -0.329965
C   0.212181  -0.340348   0.034717
C  -0.351961   0.146519   0.037864
C   0.304222  -0.108662  -0.093621
C   0.376435   0.008112  -0.081324
C   0.154158  -0.229367  -0.062020
C   0.057379   0.150149   0.282642
C   0.276556   0.275507  -0.378713
C   0.111824   0.240363   0.056550
C   0.012726  -0.174409   0.252629
44
44
C   0.022095   0.456847  -0.203038
C   0.016144  -0.509685   0.358436
C   0.264811   0.011350  -0.275488
C  -0.038145  -0.060419   0.481095
C  -0.124189  -0.084339   0.276130
C   0.277669   0.149538  -0.078280
C  -0.098058  -0.135793  -0.143526
C   0.071791   0.169640   0.030389
C  -0.389346  -0.307568  -0.116114
C   0.405740  -0.423743   0.107920
C  -0.206000   0.147760   0.190453
C   0.464111  -0.522745  -0.019531
C   0.269718  -0.294912  -0.286533
C   0.417535  -0.100872   0.041679
C   0.262764  -0.121650  -0.303184
C  -0.189987  -0.024263   0.111937
C  -0.303233  -0.111612  -0.031571
C  -0.036222  -0.022116  -0.200342
C   0.117025  -0.072741   0.081907
C  -0.444028  -0.085874  -0.072871
C   0.294086   0.040136  -0.099811
C   0.020533  -0.206348  -0.167253
C  -0.206406  -0.136444   0.264386
C  -0.259579  -0.127320   0.004392
C  -0.314039   0.077405  -0.008143
C   0.047915   0.042271   0.007357
C   0.180959   0.123824   0.064643
C   0.034661   0.082555   0.203589
C   0.319414   0.074374   0.256841
C  -0.191995  -0.046035  -0.116394
C   0.423551   0.003665  -0.062541
C   0.131803  -0.065074   0.134550
C   0.068791   0.167931  -0.420616
C  -0.319759   0.078035  -0.015626
C   0.034757  -0.485510   0.171006
C   0.140218   0.025308  -0.214734
C  -0.210041  -0.019865   0.026973
C  -0.000754  -0.041146   0.029101
C   0.057986  -0.065989  -0.357680
C   0.124700   0.197072  -0.116201
C   0.195561  -0.045643  -0.016770
C  -0.126347   0.120363   0.130666
C   0.118149  -0.109781  -0.200924
C   0.070601  -0.048036  -0.276875
