44
44
C  34.611355  29.306915  32.962006
C  34.388237  30.205368  33.475365
C  35.234592  30.350025  34.157017
C  33.472561  30.006927  34.072697
C  34.171150  31.377777  32.583542
C  35.046505  32.221569  32.354156
C  32.898045  31.618601  32.214218
C  32.221771  30.980272  32.630089
C  32.437984  32.745010  31.379221
C  33.370377  33.283043  31.036448
C  31.828051  32.115360  30.178419
C  31.668272  32.901737  29.455408
C  32.584614  31.489059  29.692598
C  30.931124  31.593918  30.497087
C  31.511280  33.613514  32.168495
C  30.463320  34.042786  31.657347
C  31.960453  34.050312  33.363556
C  32.765862  33.579720  33.758995
C  31.125355  34.817009  34.283875
C  30.244383  34.266655  34.473476
C  31.677183  35.079384  35.199032
C  30.772409  35.739914  33.791836
C  31.369606  29.448217  35.936474
C  30.634903  30.273409  35.898575
C  31.196169  31.103313  36.279007
C  29.759350  29.995531  36.434097
C  30.178928  30.511459  34.455074
C  30.667946  29.903637  33.533794
C  29.118954  31.287962  34.324238
C  28.722668  31.814573  35.056618
C  28.379269  31.525974  33.071033
C  29.150867  31.436737  32.274452
C  27.368338  30.402878  32.916843
C  26.719986  30.464869  33.785603
C  26.837915  30.534163  32.033943
C  27.905521  29.432116  32.683113
C  27.666231  32.888412  33.116177
C  27.572588  33.488758  34.208714
C  27.134617  33.177071  31.916063
C  27.283943  32.596973  31.119379
C  26.051207  34.184563  31.804527
C  25.164841  33.699181  32.295712
C  26.302990  35.106838  32.317333
C  25.865431  34.474899  30.743719
