44
44
C  -0.247085  -0.135076   0.158185
C   0.381695   0.088833   0.504439
C  -0.192450   0.229381   0.079573
C   0.247427  -0.010540  -0.187678
C  -0.493874   0.001425   0.166502
C  -0.029671   0.043859   0.255562
C  -0.011142   0.218347  -0.161778
C   0.015450   0.378747   0.142399
C  -0.034549  -0.008569   0.023430
C  -0.070916   0.197958  -0.292593
C  -0.112274   0.035384  -0.216277
C   0.053839   0.238584  -0.117501
C  -0.088186   0.024677   0.087703
C  -0.058757   0.020503  -0.431129
C  -0.177518  -0.224607   0.064410
C   0.160463  -0.272701   0.005433
C  -0.316217  -0.275250   0.156990
C  -0.109728   0.156370   0.077879
C   0.154064   0.147013   0.149277
C  -0.185250  -0.016840  -0.152760
C  -0.008742   0.035313  -0.097359
C  -0.079795   0.248697   0.456378
C  -0.495511  -0.066107  -0.042823
C  -0.045262  -0.300618  -0.015478
C  -0.465317   0.077506  -0.165870
C  -0.136853  -0.256312   0.160388
C   0.143096   0.264877  -0.002434
C   0.336755  -0.065061   0.145178
C  -0.136778   0.089846   0.347332
C  -0.138480  -0.451485   0.039663
C  -0.128143  -0.025783   0.164406
C  -0.314101   0.115522  -0.302511
C  -0.265025  -0.144229  -0.117917
C  -0.176620  -0.015174   0.079716
C  -0.062026   0.183431  -0.336524
C  -0.216602  -0.212516   0.125689
C  -0.218404   0.292545  -0.227721
C   0.142313   0.108001  -0.076756
C  -0.292335   0.057936   0.013732
C   0.168392  -0.249558   0.027392
C   0.007984   0.212225  -0.094311
C  -0.556277  -0.169230   0.135264
C   0.000912   0.209013   0.044267
C  -0.169935  -0.089166   0.011122
44
44
C  -0.167009   0.106341   0.222766
C   0.082641   0.102840   0.215203
C   0.440547  -0.232215  -0.223860
C  -0.190227   0.030743  -0.201662
C   0.030226  -0.341710   0.389723
C   0.021258  -0.284927  -0.168241
C  -0.337236   0.112848  -0.126966
C  -0.097417   0.171544  -0.324735
C  -0.322278  -0.042520   0.460424
C  -0.084311   0.270658  -0.042186
C  -0.220919   0.071369   0.197221
C   0.075285  -0.268822  -0.320548
C   0.119279  -0.103917  -0.301150
C  -0.057651  -0.277613   0.216067
C  -0.070150   0.123480  -0.089803
C  -0.347569   0.048635  -0.043534
C  -0.003393   0.062768   0.003864
C  -0.211047   0.381313   0.145225
C  -0.080705  -0.210247   0.093050
C  -0.191969   0.071393   0.143558
C  -0.229831  -0.244034  -0.152891
C  -0.295673  -0.409925  -0.483469
C  -0.011819  -0.252442   0.145903
C  -0.278004   0.124156   0.171165
C  -0.154300  -0.134508  -0.316462
C   0.034998   0.140258   0.317653
C  -0.325634  -0.018758   0.020178
C   0.203189   0.212575   0.041923
C   0.496803  -0.352200  -0.155404
C   0.315970   0.463400  -0.371407
C  -0.118743   0.408226  -0.271068
C  -0.507777   0.480969  -0.120065
C   0.176519   0.111928  -0.220195
C  -0.248553   0.264671   0.291011
C   0.058793  -0.368892  -0.022879
C  -0.098870   0.240180  -0.342516
C  -0.146269  -0.010571   0.390716
C   0.045371  -0.051897   0.489294
C  -0.031593  -0.231716   0.240185
C   0.105113  -0.123552  -0.119233
C  -0.117809   0.279921   0.076087
C   0.095014   0.398561   0.112268
C  -0.045452   0.172506  -0.146629
C   0.106804   0.285906   0.138963
44
44
C  -0.120214   0.262801   0.219583
C   0.065290  -0.014191   0.138960
C   0.362292  -0.361559  -0.233125
C   0.358605   0.122315   0.149212
C   0.048435   0.066502  -0.281304
C  -0.053292  -0.158090   0.037201
C   0.152807   0.308955  -0.245300
C   0.190332  -0.039779  -0.108754
C   0.224943   0.522732   0.451589
C  -0.456081  -0.365981   0.175242
C  -0.151262   0.130395   0.214414
C   0.055391   0.180133  -0.365685
C  -0.230258  -0.371892   0.037376
C  -0.183270  -0.393218  -0.115047
C  -0.526292   0.112822   0.082730
C  -0.000076  -0.124786   0.159041
C  -0.335817  -0.087089  -0.458339
C   0.483703  -0.155123  -0.133554
C  -0.182758   0.276814   0.400132
C   0.058832  -0.150439  -0.194617
C  -0.021482   0.158241  -0.119095
C   0.043626   0.104390   0.145367
C   0.027471   0.027532   0.267329
C   0.140364  -0.150457   0.088336
C   0.228634   0.190528  -0.074082
C   0.018495  -0.138919   0.157645
C   0.288279  -0.244424   0.159959
C  -0.344786  -0.093602   0.161634
C  -0.162213  -0.055875   0.003018
C   0.095031   0.172081   0.042313
C  -0.278555  -0.083051  -0.062881
C  -0.071247  -0.418277   0.010808
C  -0.065375   0.347064   0.289368
C  -0.517388   0.233987   0.261388
C   0.005259  -0.013239   0.011975
C   0.052475  -0.256763  -0.013234
C   0.072486  -0.341344   0.099360
C  -0.036203   0.022310  -0.335470
C   0.162819  -0.219494   0.112831
C   0.035673   0.106410  -0.130964
C  -0.130771  -0.079870   0.207070
C   0.105074   0.047097  -0.097446
C   0.576475   0.200172  -0.006025
C   0.192309  -0.258899  -0.289756
44
44
C  -0.011814  -0.080403  -0.079479
C  -0.054577   0.116003   0.039558
C  -0.149047  -0.166620   0.238154
C   0.170943  -0.082271   0.165472
C   0.168660  -0.549616   0.019965
C   0.098732  -0.137046   0.133596
C  -0.274683  -0.077687  -0.035281
C  -0.112198  -0.181038   0.319558
C   0.528833   0.103178   0.712567
C   0.217065  -0.048925  -0.258983
C   0.390800  -0.109395  -0.213931
C   0.046353  -0.028556  -0.189996
C  -0.060360  -0.100377  -0.029424
C   0.166918  -0.164235  -0.272684
C   0.431862  -0.070848  -0.149160
C   0.056917   0.035988  -0.133971
C   0.188553   0.224771  -0.245216
C  -0.080317  -0.209067  -0.494775
C  -0.287521   0.340061  -0.174156
C   0.222840  -0.180929   0.314708
C  -0.083606  -0.342747  -0.345340
C  -0.056001   0.028470  -0.160053
C  -0.171912  -0.070802   0.200564
C  -0.286311   0.029481   0.040809
C  -0.218116  -0.351819   0.128522
C  -0.182129   0.024037  -0.018058
C   0.129065   0.071708   0.034164
C  -0.073771   0.275784  -0.181200
C   0.018612   0.353168  -0.023959
C   0.076149  -0.160283  -0.122244
C   0.069864   0.264917   0.213005
C  -0.258974  -0.210885   0.036936
C   0.159719   0.059833   0.465197
C   0.245078  -0.254079  -0.259008
C  -0.035960   0.147565   0.346194
C   0.181121  -0.100956   0.071401
C   0.161641  -0.459528  -0.063522
C   0.030262   0.081319   0.212061
C  -0.173743   0.161305   0.056157
C  -0.255693  -0.068751  -0.150295
C  -0.020563   0.029557   0.129316
C   0.128844  -0.095063   0.098282
C   0.093168  -0.151892  -0.024842
C   0.420277   0.220034  -0.106377
44
44
C   0.274297   0.002596  -0.311969
C  -0.026280  -0.175767   0.295489
C  -0.010853   0.150839   0.115440
C  -0.017816  -0.149186   0.061394
C   0.113137   0.024044   0.294699
C   0.001991  -0.033672   0.141080
C  -0.119390  -0.030180  -0.240713
C   0.312782  -0.510352  -0.068315
C  -0.070345  -0.403238   0.130231
C  -0.165126   0.118718   0.092811
C   0.133875   0.154722   0.453778
C   0.130802   0.019820   0.158304
C   0.204958   0.128605  -0.067183
C   0.017384   0.031629  -0.051603
C   0.096212   0.070142  -0.230359
C  -0.242047   0.309042  -0.371222
C   0.051229   0.299768   0.063800
C   0.110059  -0.090218   0.082033
C  -0.041322  -0.025171  -0.507363
C   0.012304   0.084339   0.013243
C  -0.211850  -0.142678  -0.195313
C  -0.290690  -0.201091   0.506071
C  -0.083456   0.159779   0.360075
C   0.219901  -0.025986   0.423986
C   0.039232   0.107711   0.114699
C   0.322060   0.237350   0.001445
C  -0.246628   0.129386  -0.277762
C   0.166806  -0.058806   0.141054
C  -0.098330   0.222165  -0.022142
C  -0.036320  -0.032650   0.272719
C  -0.382610  -0.287226   0.404290
C  -0.082447  -0.050964  -0.196376
C   0.276329  -0.048983   0.221562
C  -0.263464  -0.150521   0.063319
C  -0.222691  -0.138638   0.216843
C  -0.009278   0.057356  -0.390475
C   0.066081   0.118807   0.017810
C   0.130811  -0.148361   0.012568
C  -0.077290   0.116826   0.003945
C  -0.077689   0.284487  -0.160630
C   0.323369   0.214514  -0.409358
C   0.507507  -0.007859  -0.269847
C  -0.203840   0.013812  -0.081144
C  -0.206756  -0.089431  -0.118347
44
44
C  -0.000880   0.096425   0.075127
C  -0.099283  -0.084236  -0.302273
C   0.345831  -0.096025   0.215676
C   0.309121  -0.104997  -0.093624
C   0.249001  -0.275962  -0.282006
C  -0.223762   0.172619   0.222344
C   0.008460   0.137740  -0.164041
C   0.269770  -0.067152  -0.010489
C  -0.094135   0.060561   0.006546
C   0.038889  -0.315554   0.103316
C   0.124230   0.072762  -0.349580
C   0.298059  -0.030599   0.273303
C   0.000452   0.150621  -0.038752
C  -0.103326   0.203691  -0.055543
C  -0.292951  -0.129107  -0.220778
C  -0.272490  -0.077559   0.122832
C   0.270348   0.162660   0.048413
C   0.321511   0.130500   0.178269
C   0.162289   0.348672   0.506891
C  -0.072250  -0.139774  -0.268873
C   0.191381  -0.178345   0.068919
C   0.133060  -0.177162  -0.124327
C  -0.668494   0.163937   0.290832
C   0.224790   0.273732  -0.306822
C   0.045145  -0.455278   0.085145
C   0.435913   0.180548  -0.301464
C   0.340650  -0.033110  -0.157467
C  -0.350444  -0.154760   0.043382
C   0.228930  -0.198275  -0.026950
C  -0.447085   0.168038  -0.156004
C   0.498151  -0.255695   0.044397
C  -0.448630  -0.350041   0.373595
C  -0.352714  -0.124144   0.303328
C  -0.053053   0.278831   0.174615
C   0.042986  -0.117420   0.007728
C   0.109724   0.167939   0.124091
C  -0.172108   0.097911   0.173500
C  -0.044642   0.243276  -0.013680
C   0.084039  -0.049248   0.017010
C  -0.069938   0.009726   0.021952
C   0.073991   0.117373   0.310060
C  -0.033625   0.366388   0.431546
C  -0.190072  -0.257264  -0.039038
C  -0.296638   0.041562  -0.053459
44
44
C  -0.257243   0.084162   0.046043
C  -0.106227   0.244269  -0.221772
C  -0.212861  -0.051343   0.019889
C  -0.187813   0.105104   0.040331
C   0.415972  -0.060016  -0.160913
C   0.049909   0.264029  -0.087903
C  -0.141680   0.022912  -0.285149
C   0.219839  -0.181054  -0.107876
C   0.232417  -0.289730  -0.279320
C   0.017063  -0.104291   0.050006
C   0.044256  -0.058985  -0.004215
C  -0.015820   0.103575   0.324940
C  -0.155724  -0.288654  -0.224826
C   0.396897   0.007577  -0.020809
C  -0.124797   0.125814  -0.191136
C   0.360175   0.024722   0.045532
C   0.143022  -0.217450   0.038910
C  -0.124459  -0.175006   0.030532
C   0.256449   0.082405   0.255386
C  -0.293261   0.041415  -0.217327
C  -0.230789  -0.057959  -0.002824
C   0.374772  -0.347655   0.253192
C  -0.235837   0.468093  -0.002974
C   0.164647  -0.198288   0.225943
C   0.228600   0.059636   0.012024
C   0.174146  -0.236327   0.391112
C  -0.220250   0.240756   0.249688
C  -0.365857  -0.159164   0.134143
C   0.241269   0.035227  -0.000191
C   0.039928   0.220058  -0.154394
C  -0.414385   0.169913  -0.105928
C   0.367888  -0.438594  -0.390913
C   0.350203  -0.240772   0.028839
C   0.238793  -0.386593   0.104348
C   0.055908   0.161954  -0.418579
C  -0.106327   0.042760   0.053575
C  -0.109230  -0.119621   0.168726
C  -0.105708  -0.036874   0.217108
C   0.010973  -0.032406  -0.338022
C   0.182996   0.106160  -0.160964
C  -0.011180   0.187145  -0.098875
C   0.217924   0.052040  -0.126562
C  -0.323126   0.052138  -0.205150
C  -0.065932  -0.526151  -0.019231
44
44
C   0.127899   0.295777   0.004705
C   0.100735  -0.073029  -0.047748
C   0.236182  -0.092759  -0.026784
C   0.176419   0.137284   0.184818
C   0.282925   0.077772   0.249823
C   0.114060   0.424501   0.067522
C   0.142903   0.163009  -0.069055
C   0.231235  -0.078832  -0.343749
C   0.018944   0.043113  -0.033483
C  -0.178115  -0.114813  -0.246417
C   0.133995   0.027213   0.076984
C   0.046907   0.008132  -0.037800
C  -0.136473  -0.189178  -0.049415
C   0.188589  -0.171885  -0.131889
C  -0.146098  -0.047755   0.030022
C  -0.028539  -0.066449   0.235505
C  -0.046953   0.054189  -0.250786
C   0.320854   0.014037  -0.215273
C  -0.120376   0.058762   0.075564
C   0.088500   0.036144  -0.056875
C  -0.070215   0.344021   0.026957
C   0.204025  -0.058809   0.060414
C   0.032653   0.332361   0.102946
C  -0.214394   0.078465  -0.031927
C  -0.226826  -0.430393   0.357205
C  -0.122794  -0.146468  -0.162218
C  -0.088611  -0.342582  -0.323870
C   0.268664   0.019215   0.114044
C  -0.040411   0.353026   0.147586
C   0.432449  -0.051102  -0.256366
C   0.333020   0.299349   0.573990
C   0.068355   0.413866   0.459446
C  -0.137036   0.178126  -0.307337
C   0.337614  -0.249652   0.092231
C  -0.027653  -0.110563   0.006074
C  -0.028246  -0.349692   0.097322
C   0.211815  -0.220302   0.153812
C   0.012878  -0.057729   0.093668
C  -0.058753   0.002548   0.192264
C  -0.156501  -0.189123   0.063279
C  -0.140273   0.105129   0.496795
C  -0.198191  -0.127802   0.056638
C   0.063613   0.340426   0.218647
C   0.057927  -0.112523  -0.046437
44
44
C  -0.167966   0.068081  -0.049442
C   0.173004  -0.064339  -0.294021
C   0.088397  -0.056407   0.438372
C   0.056829   0.325848   0.028606
C  -0.252150  -0.155812   0.248938
C  -0.045383  -0.171794   0.275960
C   0.002071   0.032161   0.026525
C   0.016686   0.055291  -0.083767
C  -0.194615   0.198640  -0.192221
C   0.144396   0.132551  -0.313493
C  -0.167054   0.077092  -0.259068
C  -0.084264  -0.213682   0.038396
C   0.294942  -0.401938  -0.202871
C  -0.115140   0.032621   0.016957
C   0.047356   0.136225   0.124345
C   0.484139  -0.079655  -0.182772
C  -0.219140   0.105359   0.060320
C   0.245909  -0.248326  -0.367073
C   0.241864  -0.016468  -0.042741
C   0.072967   0.098232   0.347411
C  -0.320046   0.017981   0.261844
C   0.033056  -0.005429   0.116744
C   0.171141  -0.175401  -0.020811
C  -0.317117   0.362294  -0.026784
C  -0.461187   0.151836  -0.053309
C   0.000965  -0.141457  -0.289285
C  -0.207958   0.474765   0.211454
C  -0.322011   0.057721  -0.299320
C   0.215069  -0.032176  -0.099878
C   0.240298  -0.284435   0.001235
C  -0.021933   0.238108  -0.298839
C   0.044477  -0.100326   0.100629
C  -0.024443  -0.240544  -0.320151
C   0.162033   0.127767  -0.112544
C  -0.046127   0.055657  -0.315477
C   0.161411  -0.293259   0.033822
C  -0.308169   0.153405   0.006379
C   0.360450  -0.147426  -0.104617
C   0.390871  -0.073262  -0.102866
C   0.236211  -0.297365  -0.048785
C   0.174019   0.237092   0.292633
C   0.264337   0.143116  -0.367269
C   0.128876   0.263317   0.030309
C   0.007698  -0.151275   0.254686
44
44
C  -0.302423   0.332394  -0.028851
C   0.070139  -0.474330   0.254715
C   0.057296   0.034450  -0.531730
C   0.018367  -0.111593   0.371688
C   0.048521   0.045468   0.300555
C   0.155961   0.231230   0.006968
C  -0.177299  -0.050125  -0.054352
C   0.145369   0.044497  -0.008416
C  -0.104922  -0.226012  -0.019911
C   0.524934  -0.385170   0.327702
C  -0.198847   0.087951   0.024792
C   0.540718  -0.542798   0.223629
C   0.296676  -0.377436  -0.265872
C   0.355744  -0.074145   0.147650
C  -0.258399  -0.194441  -0.245915
C  -0.233540  -0.037357  -0.099237
C  -0.126068   0.138481   0.391753
C   0.196358  -0.420777   0.107685
C   0.041273  -0.386125   0.016019
C  -0.299860  -0.002825  -0.125580
C  -0.228281   0.085625  -0.001772
C   0.027120  -0.133076  -0.162735
C  -0.171976  -0.192130   0.221486
C  -0.254698  -0.129162   0.023038
C  -0.287575   0.090026   0.024325
C   0.019004   0.067770   0.117761
C   0.091705  -0.069759   0.112564
C  -0.003076   0.097001   0.154539
C   0.344436   0.010104   0.212775
C  -0.183402   0.011522  -0.024886
C   0.478290  -0.145767  -0.043565
C   0.178576  -0.053659   0.151475
C   0.081903   0.134830  -0.407728
C  -0.277286   0.093386   0.060746
C   0.032347  -0.483448   0.169823
C   0.153618   0.003752  -0.274724
C  -0.298341   0.044106   0.012931
C  -0.014486  -0.002145   0.015311
C   0.047619  -0.136328  -0.393265
C   0.215470   0.203353  -0.157053
C   0.188434  -0.122863  -0.015779
C  -0.113795   0.150853   0.153381
C   0.205172  -0.081911  -0.209930
C   0.047219  -0.033244  -0.201708
