44
44
C  -0.247085  -0.135076   0.158185
C   0.381695   0.088833   0.504439
C  -0.192450   0.229381   0.079573
C   0.247427  -0.010540  -0.187678
C  -0.493874   0.001425   0.166502
C  -0.029671   0.043859   0.255562
C  -0.011142   0.218347  -0.161778
C   0.015450   0.378747   0.142399
C  -0.034549  -0.008569   0.023430
C  -0.070916   0.197958  -0.292593
C  -0.112274   0.035384  -0.216277
C   0.053839   0.238584  -0.117501
C  -0.088186   0.024677   0.087703
C  -0.058757   0.020503  -0.431129
C  -0.177518  -0.224607   0.064410
C   0.160463  -0.272701   0.005433
C  -0.316217  -0.275250   0.156990
C  -0.109728   0.156370   0.077879
C   0.154064   0.147013   0.149277
C  -0.185250  -0.016840  -0.152760
C  -0.008742   0.035313  -0.097359
C  -0.079795   0.248697   0.456378
C  -0.495511  -0.066107  -0.042823
C  -0.045262  -0.300618  -0.015478
C  -0.465317   0.077506  -0.165870
C  -0.136853  -0.256312   0.160388
C   0.143096   0.264877  -0.002434
C   0.336755  -0.065061   0.145178
C  -0.136778   0.089846   0.347332
C  -0.138480  -0.451485   0.039663
C  -0.128143  -0.025783   0.164406
C  -0.314101   0.115522  -0.302511
C  -0.265025  -0.144229  -0.117917
C  -0.176620  -0.015174   0.079716
C  -0.062026   0.183431  -0.336524
C  -0.216602  -0.212516   0.125689
C  -0.218404   0.292545  -0.227721
C   0.142313   0.108001  -0.076756
C  -0.292335   0.057936   0.013732
C   0.168392  -0.249558   0.027392
C   0.007984   0.212225  -0.094311
C  -0.556277  -0.169230   0.135264
C   0.000912   0.209013   0.044267
C  -0.169935  -0.089166   0.011122
44
44
C  -0.166865   0.097017   0.222684
C   0.073103   0.094017   0.224123
C   0.432982  -0.234270  -0.217723
C  -0.203921   0.030181  -0.183080
C   0.029846  -0.332644   0.379900
C   0.000867  -0.294891  -0.175369
C  -0.362648   0.105430  -0.126859
C  -0.106466   0.165515  -0.325099
C  -0.325435  -0.042868   0.453560
C  -0.089721   0.266196  -0.042422
C  -0.210645   0.084402   0.196860
C   0.087171  -0.269362  -0.317347
C   0.109667  -0.102500  -0.319046
C  -0.057289  -0.275471   0.206632
C  -0.041662   0.112642  -0.072643
C  -0.350080   0.056788  -0.052968
C  -0.018726   0.066693  -0.016514
C  -0.210392   0.380231   0.149488
C  -0.074654  -0.205379   0.085624
C  -0.192619   0.063976   0.146579
C  -0.226549  -0.244307  -0.154265
C  -0.300680  -0.394890  -0.476704
C  -0.023792  -0.253003   0.153933
C  -0.286024   0.122900   0.172053
C  -0.147843  -0.129489  -0.318661
C   0.030546   0.135765   0.338047
C  -0.340019   0.009163   0.047970
C   0.218922   0.208981   0.021189
C   0.517930  -0.370446  -0.153921
C   0.315045   0.463689  -0.363709
C  -0.118883   0.419329  -0.278269
C  -0.511028   0.496158  -0.123641
C   0.180321   0.101038  -0.218490
C  -0.246173   0.255871   0.298936
C   0.046199  -0.359325  -0.026869
C  -0.119141   0.249894  -0.324429
C  -0.159004  -0.003567   0.411407
C   0.041166  -0.037123   0.485272
C  -0.037662  -0.243353   0.241401
C   0.100447  -0.118455  -0.121919
C  -0.115149   0.283072   0.076255
C   0.088058   0.403692   0.108605
C  -0.041652   0.200525  -0.150455
C   0.102310   0.279023   0.133831
44
44
C  -0.122349   0.222951   0.213679
C   0.044569  -0.025942   0.143151
C   0.343741  -0.362506  -0.219276
C   0.340509   0.124882   0.152479
C   0.002066   0.056312  -0.236871
C  -0.014020  -0.137184   0.061738
C   0.181393   0.316239  -0.234218
C   0.169271  -0.046939  -0.109816
C   0.251101   0.527798   0.465912
C  -0.444336  -0.358117   0.129181
C  -0.160398   0.146824   0.226928
C   0.074209   0.179755  -0.348049
C  -0.249821  -0.369125   0.028294
C  -0.186580  -0.376374  -0.101849
C  -0.535364   0.095023   0.041468
C   0.008943  -0.120997   0.171680
C  -0.315150  -0.062557  -0.446548
C   0.474608  -0.200922  -0.127536
C  -0.175540   0.278596   0.386217
C   0.076266  -0.165993  -0.200160
C  -0.004329   0.173136  -0.125305
C   0.043318   0.105168   0.136086
C   0.017655   0.042071   0.259038
C   0.162115  -0.130019   0.114167
C   0.242914   0.211855  -0.052137
C   0.015033  -0.130908   0.146231
C   0.310526  -0.279107   0.138549
C  -0.349805  -0.075081   0.174097
C  -0.179770  -0.031860   0.014954
C   0.088826   0.180867   0.010242
C  -0.293402  -0.092051  -0.066849
C  -0.071806  -0.421202   0.022281
C  -0.077654   0.358440   0.301564
C  -0.529492   0.232675   0.277416
C  -0.009063  -0.010581   0.018478
C   0.052009  -0.261149  -0.012779
C   0.074155  -0.354831   0.069587
C  -0.038609   0.025528  -0.332859
C   0.162732  -0.219831   0.110898
C   0.040855   0.091462  -0.157313
C  -0.094859  -0.073478   0.214156
C   0.104287   0.045349  -0.096763
C   0.615330   0.185041   0.001449
C   0.200867  -0.260293  -0.283258
44
44
C  -0.017214  -0.081889  -0.078343
C  -0.131538   0.098428   0.027541
C  -0.198949  -0.148426   0.248710
C   0.144187  -0.063780   0.155891
C   0.131377  -0.553774   0.005976
C   0.072900  -0.180816   0.129504
C  -0.316737  -0.083520  -0.063199
C  -0.114281  -0.181065   0.315823
C   0.514152   0.088480   0.715449
C   0.252374  -0.030276  -0.275178
C   0.384106  -0.113582  -0.226773
C   0.045839  -0.028269  -0.204069
C  -0.057945  -0.105772  -0.031542
C   0.150502  -0.143306  -0.284377
C   0.454972  -0.068064  -0.148181
C   0.067080   0.013358  -0.120894
C   0.198948   0.217061  -0.247955
C  -0.078343  -0.204542  -0.488089
C  -0.298895   0.339955  -0.174660
C   0.252244  -0.176997   0.326926
C  -0.081222  -0.346792  -0.338889
C  -0.053771   0.025353  -0.181047
C  -0.179470  -0.071386   0.210198
C  -0.299073   0.016227   0.046006
C  -0.206488  -0.342373   0.089511
C  -0.183759   0.021624  -0.009805
C   0.123122   0.087207   0.029523
C  -0.074479   0.273071  -0.233870
C   0.051138   0.327586  -0.054740
C   0.075398  -0.140150  -0.104076
C   0.072549   0.246087   0.224287
C  -0.254923  -0.228218   0.041954
C   0.156359   0.060318   0.464363
C   0.248696  -0.250534  -0.263173
C  -0.022957   0.157557   0.346990
C   0.179942  -0.100868   0.070844
C   0.166972  -0.472306  -0.039031
C   0.044886   0.106365   0.218203
C  -0.155353   0.149031   0.035395
C  -0.255532  -0.098652  -0.141967
C  -0.000324   0.023712   0.139469
C   0.129215  -0.095692   0.096286
C   0.081425  -0.148276  -0.021924
C   0.420231   0.218647  -0.107509
44
44
C   0.277181  -0.001062  -0.303654
C  -0.049796  -0.207091   0.284186
C  -0.010850   0.152584   0.112027
C  -0.005585  -0.141757   0.072528
C   0.126426   0.020154   0.295446
C   0.002467  -0.036572   0.141521
C  -0.114132  -0.021268  -0.239272
C   0.325526  -0.502059  -0.070398
C  -0.081803  -0.376862   0.109752
C  -0.202567   0.117014   0.089369
C   0.123688   0.140106   0.437677
C   0.112578   0.022737   0.156950
C   0.224432   0.082958  -0.039890
C   0.022176   0.006193  -0.026207
C   0.107581   0.095808  -0.240904
C  -0.217893   0.297360  -0.366567
C   0.054447   0.301384   0.060904
C   0.101296  -0.109018   0.094699
C  -0.084662  -0.018474  -0.503498
C   0.012316   0.085327   0.012498
C  -0.231566  -0.160353  -0.165595
C  -0.263083  -0.184148   0.509724
C  -0.091925   0.166060   0.338224
C   0.224056  -0.010170   0.438995
C   0.034586   0.114425   0.122574
C   0.333107   0.217618  -0.010261
C  -0.273683   0.155376  -0.265086
C   0.195187  -0.019340   0.127054
C  -0.087181   0.233428  -0.010806
C  -0.040799  -0.052795   0.266222
C  -0.398157  -0.289258   0.433006
C  -0.084953  -0.053076  -0.174283
C   0.249710  -0.041717   0.200345
C  -0.268742  -0.123775   0.067160
C  -0.216599  -0.121570   0.235649
C  -0.012688   0.056977  -0.391514
C   0.073356   0.131028  -0.016274
C   0.120585  -0.147862  -0.013082
C  -0.086736   0.119760   0.024992
C  -0.069975   0.275586  -0.142951
C   0.302854   0.241511  -0.403233
C   0.523646  -0.022184  -0.282853
C  -0.181899  -0.007017  -0.098236
C  -0.202494  -0.073789  -0.120691
44
44
C   0.019242   0.082398   0.063998
C  -0.084974  -0.073284  -0.295624
C   0.345295  -0.090415   0.222349
C   0.315879  -0.103978  -0.098764
C   0.242018  -0.266993  -0.274182
C  -0.222612   0.177212   0.222093
C   0.012405   0.113858  -0.150873
C   0.247237  -0.062559  -0.037402
C  -0.101045   0.030590   0.011541
C   0.053366  -0.342879   0.115493
C   0.131141   0.076254  -0.351392
C   0.297046  -0.057520   0.249632
C   0.003215   0.164175  -0.022886
C  -0.090088   0.198664  -0.050295
C  -0.320095  -0.120335  -0.223853
C  -0.266757  -0.050838   0.133130
C   0.251925   0.172351   0.048936
C   0.315675   0.122332   0.174407
C   0.177062   0.356842   0.503703
C  -0.098190  -0.127679  -0.270911
C   0.195571  -0.206395   0.078778
C   0.121423  -0.148069  -0.112266
C  -0.674093   0.207340   0.280591
C   0.239245   0.273714  -0.281352
C   0.031923  -0.460727   0.108613
C   0.437697   0.169117  -0.326832
C   0.357989  -0.078011  -0.166408
C  -0.361156  -0.120929   0.069430
C   0.213701  -0.195323  -0.008126
C  -0.448114   0.187722  -0.189908
C   0.501064  -0.260202   0.017230
C  -0.442787  -0.309365   0.375304
C  -0.330964  -0.123834   0.301734
C  -0.043579   0.275154   0.180995
C   0.056632  -0.105143   0.019788
C   0.120622   0.169726   0.119895
C  -0.180262   0.101784   0.178394
C  -0.048148   0.245257  -0.016046
C   0.077382  -0.046404  -0.001258
C  -0.022334   0.065648   0.016741
C   0.108777   0.123377   0.295576
C  -0.121660   0.359316   0.455221
C  -0.245085  -0.261843  -0.034873
C  -0.287424   0.042714  -0.045667
44
44
C  -0.256774   0.091049   0.042246
C  -0.094985   0.259684  -0.235895
C  -0.213282  -0.033466   0.003793
C  -0.181324   0.113066   0.034695
C   0.427633  -0.052855  -0.148761
C   0.024797   0.258705  -0.068918
C  -0.124971   0.019450  -0.282864
C   0.245003  -0.195672  -0.102448
C   0.249910  -0.280461  -0.282413
C   0.028199  -0.116638   0.034061
C   0.054931  -0.043647  -0.014758
C  -0.011646   0.102681   0.326150
C  -0.155685  -0.288720  -0.223750
C   0.391989  -0.001590  -0.039669
C  -0.150259   0.128057  -0.204198
C   0.367290   0.031472   0.040744
C   0.150018  -0.219034   0.048999
C  -0.112885  -0.110911   0.020027
C   0.242204   0.101041   0.242751
C  -0.296050   0.067267  -0.192546
C  -0.228322  -0.049048  -0.006451
C   0.376531  -0.356918   0.242908
C  -0.246236   0.500916   0.015181
C   0.148467  -0.199429   0.253321
C   0.235475   0.063814   0.015330
C   0.177129  -0.222660   0.389498
C  -0.202768   0.251934   0.239542
C  -0.377405  -0.144787   0.151646
C   0.226285   0.039539  -0.001467
C   0.018114   0.190259  -0.167120
C  -0.417395   0.163867  -0.085330
C   0.393829  -0.444172  -0.369115
C   0.331400  -0.245604   0.047086
C   0.224518  -0.401201   0.111367
C   0.033619   0.151370  -0.418242
C  -0.094791   0.024559   0.059245
C  -0.090792  -0.119297   0.175520
C  -0.143614  -0.065895   0.187951
C   0.009385  -0.018723  -0.324970
C   0.202148   0.110096  -0.122165
C   0.010233   0.189788  -0.055655
C   0.227235   0.051494  -0.052432
C  -0.308786   0.096170  -0.254231
C  -0.121942  -0.529220  -0.062713
44
44
C   0.119489   0.302804   0.011133
C   0.098029  -0.057704  -0.030560
C   0.239278  -0.063548  -0.051879
C   0.175989   0.137529   0.182085
C   0.251721   0.087225   0.285591
C   0.077406   0.426131   0.113637
C   0.143017   0.141838  -0.084873
C   0.260958  -0.073722  -0.330954
C   0.016704   0.053662  -0.031993
C  -0.175694  -0.083247  -0.290926
C   0.125373   0.020271   0.078977
C   0.038001   0.006731  -0.037015
C  -0.111071  -0.185693  -0.040137
C   0.194487  -0.168433  -0.132373
C  -0.140970  -0.040122   0.043378
C  -0.021904  -0.048617   0.230461
C  -0.032131   0.081310  -0.256913
C   0.325473  -0.007535  -0.246944
C  -0.092730   0.073743   0.055638
C   0.088136   0.007160  -0.083352
C  -0.065025   0.335703   0.031122
C   0.198709  -0.049902   0.061855
C   0.066569   0.328701   0.040719
C  -0.206889   0.089438  -0.047471
C  -0.256296  -0.422558   0.396603
C  -0.116934  -0.153485  -0.123461
C  -0.078743  -0.345037  -0.318680
C   0.270926   0.013283   0.106290
C  -0.039776   0.342204   0.131860
C   0.419246  -0.041478  -0.220408
C   0.324166   0.307022   0.582843
C   0.069258   0.414359   0.459462
C  -0.131557   0.172999  -0.306756
C   0.326620  -0.242167   0.091615
C  -0.007032  -0.098535   0.002948
C  -0.036172  -0.356004   0.098364
C   0.210883  -0.227978   0.132293
C   0.037402  -0.039714   0.116997
C  -0.078777   0.024734   0.199743
C  -0.151068  -0.217980   0.049381
C  -0.183867   0.101775   0.487811
C  -0.195419  -0.157525   0.037522
C   0.039916   0.351290   0.284108
C   0.052240  -0.098758  -0.060928
44
44
C  -0.168807   0.082958  -0.044485
C   0.179440  -0.052994  -0.295059
C   0.079508  -0.032158   0.466967
C   0.061063   0.308560   0.052992
C  -0.247626  -0.157325   0.243746
C  -0.031118  -0.173839   0.254199
C  -0.003179   0.031302   0.028069
C  -0.026891   0.044992  -0.079687
C  -0.190611   0.167030  -0.202465
C   0.133668   0.119257  -0.308551
C  -0.194845   0.066221  -0.263469
C  -0.088470  -0.197769   0.022548
C   0.317523  -0.373031  -0.180669
C  -0.114145   0.031081  -0.002166
C   0.026029   0.129038   0.106284
C   0.496330  -0.071036  -0.192685
C  -0.232426   0.109243   0.069846
C   0.231978  -0.255648  -0.378520
C   0.232118  -0.015277  -0.025258
C   0.072183   0.098591   0.365358
C  -0.296854   0.004623   0.268972
C   0.019961   0.002643   0.100765
C   0.169277  -0.197627  -0.054005
C  -0.304964   0.397903  -0.041276
C  -0.460784   0.151830  -0.052268
C   0.017683  -0.094580  -0.286165
C  -0.187430   0.493016   0.191034
C  -0.330859   0.055863  -0.299894
C   0.219257  -0.033441  -0.100338
C   0.233949  -0.289048   0.008452
C  -0.036194   0.234994  -0.293998
C   0.052258  -0.106166   0.107846
C   0.009308  -0.258831  -0.309734
C   0.184914   0.109902  -0.114331
C  -0.036612   0.031903  -0.307361
C   0.170312  -0.291520   0.036304
C  -0.322736   0.177388   0.019335
C   0.350728  -0.158321  -0.096230
C   0.398377  -0.022214  -0.071636
C   0.239534  -0.310379  -0.027977
C   0.103888   0.200620   0.297581
C   0.325690   0.173775  -0.362386
C   0.109020   0.246855   0.029123
C   0.010030  -0.137649   0.239035
44
44
C  -0.250239   0.368957  -0.051665
C   0.095959  -0.500534   0.279590
C   0.083918   0.096052  -0.511250
C   0.035359  -0.112318   0.407074
C   0.058378  -0.003106   0.301816
C   0.110973   0.237765  -0.018338
C  -0.151974  -0.067765  -0.102031
C   0.129377   0.069697   0.034651
C  -0.126556  -0.231977  -0.026817
C   0.545326  -0.357920   0.349110
C  -0.196897   0.086251   0.009989
C   0.534660  -0.541632   0.240244
C   0.316959  -0.362997  -0.244926
C   0.370227  -0.060003   0.175516
C  -0.233518  -0.212699  -0.216825
C  -0.220125  -0.077270  -0.096333
C  -0.185518   0.162159   0.347667
C   0.253342  -0.390015   0.107600
C   0.075910  -0.396974   0.016157
C  -0.303781  -0.012007  -0.114508
C  -0.243570   0.085678  -0.013258
C   0.026658  -0.127305  -0.170651
C  -0.166426  -0.173459   0.250111
C  -0.255696  -0.130015   0.020493
C  -0.288431   0.103184   0.021543
C  -0.010243   0.041156   0.132865
C   0.101769  -0.045851   0.139399
C  -0.026326   0.072001   0.175842
C   0.331583   0.007010   0.224516
C  -0.182823   0.005021  -0.015948
C   0.488258  -0.140388  -0.000142
C   0.141654  -0.032688   0.178023
C   0.088030   0.134432  -0.404252
C  -0.283848   0.082226   0.033964
C   0.032941  -0.483004   0.171129
C   0.134149   0.018139  -0.262451
C  -0.287628   0.056034  -0.011462
C  -0.001791  -0.028946   0.020119
C   0.082645  -0.122582  -0.372373
C   0.176684   0.164442  -0.114668
C   0.258222  -0.089075  -0.010013
C  -0.130611   0.131643   0.113015
C   0.139574  -0.096813  -0.157194
C   0.088121  -0.057486  -0.231325
