44
44
C   0.887153 -10.652405 -21.800493
C  -4.812868 -13.991423  41.725643
C  -5.244375   9.128622  -4.712348
C  12.897132   5.470305  -7.065375
C -16.848398  47.907310 -15.844990
C   0.272259 -22.916878   4.953731
C  17.189413 -16.380806  16.661123
C  -5.161143   4.673702 -11.677716
C  54.191921 -35.267910   9.473711
C -28.868055   0.301186  10.319886
C  11.575169   1.721023 -21.511147
C -14.444232   3.630300  -2.818152
C  -8.217713  -7.932859   5.292406
C  -4.996783  -5.341006  -9.485465
C  -5.776635  56.594944  -1.605999
C   4.409633 -11.390027  12.565260
C -14.824877 -20.765417   6.481903
C   2.953018   6.089942  -7.064779
C  14.517904  25.507368 -12.850245
C -17.778814 -13.983034  12.164452
C  -5.057900  -3.951213  -4.006277
C   7.312259  -5.430739   3.514653
C -13.367602   3.688063  -5.213387
C  26.707695 -18.266148 -34.678349
C  -7.193699  16.367636   5.547989
C  -9.089408   0.611697  19.752544
C  -9.367327  -3.500898  39.724236
C  19.891144  -4.173789 -14.661591
C -18.581919  11.677148 -40.373741
C   4.657410   3.237974  29.355160
C  41.637615 -12.776562  11.850227
C -19.240049  13.258272   0.378290
C  36.444084 -25.313160  -0.719136
C  -5.739234 -16.286312   1.158161
C -24.622015  10.740718 -24.399126
C -14.343970  20.905466  24.692335
C  22.202856 -31.972887  -7.811211
C -10.726498   5.538471 -26.491814
C -32.152058  56.028515  21.938684
C   9.018811 -10.083475  -3.471174
C  -3.490215 -20.382059  -5.782176
C  10.455573  18.343636 -14.081156
C   3.543267   0.411448   7.491241
C  -0.174625 -11.136375  14.599128
44
44
C  -0.210959  24.238010  12.203983
C -32.097954 -17.945940 -22.123821
C   0.891876   2.325792  12.450428
C  27.221880  11.929058  -5.461819
C  -5.460978 -20.082008 -38.660446
C  -3.816429   2.511404  12.976237
C  31.341787  28.563185  21.878368
C -32.966225 -28.358400   0.592091
C  -1.489935  27.348383  15.602607
C  -3.480968  -9.163603  15.607965
C  13.738370 -45.308300  14.935870
C -11.333220  29.940285 -19.889622
C   0.157079  -0.539324   1.716590
C  -1.269447   0.509771   3.858165
C   8.121285  -3.664093 -49.603619
C   0.890996   3.940881  23.077435
C  35.769772  -7.154791  16.935270
C  -8.703753   0.051577  -2.912938
C -39.465675  11.179694 -73.235275
C -13.231185  -4.417158  11.395374
C  28.223394   5.790704  37.184452
C   3.586528 -13.582820  13.058576
C  -6.109536   3.739376  -0.300631
C   3.627333  -5.937385  -9.374971
C  11.085196  13.004993  10.238940
C   0.732703  -3.027298  -6.667251
C  17.662998 -26.272833  25.464952
C  -3.319838   8.273822  -0.891697
C -55.511623   0.585966 -36.342030
C   9.196347   3.821339  15.720159
C  19.515297   9.046564  -7.497969
C   8.610641  -6.658581 -18.516283
C -17.634192   5.740071  22.473818
C  12.786460  -0.191477  -7.060348
C   3.344101  -4.381241  -0.901539
C   3.552576  -0.176938  -6.332449
C   8.347788   8.343956  63.867016
C  -4.102911 -13.117828 -31.184338
C   1.011878 -28.133451 -28.953913
C  -6.508338  26.044418  33.609749
C   2.816637  35.964947  -6.731899
C   2.788789 -14.194981   7.082905
C  -4.616518 -12.410710  -1.929518
C  -3.128527   2.444536 -16.651573
44
44
C -14.116521  16.049856   3.585897
C   2.195685 -17.026243   8.610620
C  11.900323  14.378036  -1.772077
C   1.332180 -10.979665  -8.216436
C   1.648110   5.143292  -6.981024
C  20.707714  -3.684268   8.537291
C -47.373196 -29.470766  16.867294
C  17.026602  39.367729 -25.886429
C   3.434151 -44.931618   6.090907
C -18.701805   9.902843  -7.200397
C  17.084221 -11.800802 -14.160511
C   3.152172   5.263960  -3.418314
C  -0.472845  17.606749   5.518609
C -11.432581  -2.142226  11.957793
C  26.371130  -4.460574  27.078768
C -20.802824   8.374141 -10.751143
C -30.817892   9.896317 -20.478765
C  33.389534  -7.586215  11.630847
C   5.184908   5.603292  -5.267096
C -14.227372  -7.411311  -3.526655
C  16.899261  10.195362  22.576775
C  -5.310143  -6.823633 -11.044785
C  -2.449606   8.245412  -9.616197
C  20.559544  10.046918  12.537540
C -31.654064  -6.794006  -1.322706
C  -0.309580  15.191766  -1.060468
C  -2.550425 -63.592888 -24.118052
C   3.648020  32.684406  -5.958469
C   5.978435  -5.622805  44.620682
C  -1.246019   5.408942 -20.441441
C  30.441050  -8.113638 -18.958380
C -17.753857  15.913179  20.941027
C  27.030975 -10.545688  -5.272739
C -17.422190   5.947861   1.104291
C  -3.200624   6.754762  27.080675
C  -0.110821   2.896468  -3.519310
C   0.996276 -26.707104 -15.268852
C  -0.113138   4.135581   0.278198
C -13.910824   2.971918 -16.075975
C  -0.334989  10.169396  15.347459
C  -6.100803  35.182903 -20.547178
C  17.756214   2.472402  -0.532136
C -14.318376 -24.667023  -3.101965
C   7.798858  -7.875597  21.381741
44
44
C   2.923781  -6.934280  13.248709
C  20.597586 -19.418236 -55.137283
C -16.463373  -2.015593  -9.120895
C -11.203814  26.124044  17.635670
C -30.304285  -6.315981  67.619629
C   4.308467   3.926210 -12.167981
C 126.836197 -23.767508 -22.012915
C -41.134975  -8.848920  15.261023
C  -9.914577  38.186058 -70.225563
C   9.600421 -28.509199  11.292044
C -51.865112  27.557262  -8.399341
C  12.422564 -34.225605  33.612759
C   9.558961   3.347463  11.560511
C  19.102394  13.512650  -9.629317
C -70.026543  -5.827739 -17.588551
C  10.102640   0.732123  -5.733626
C  35.732891  14.664751  53.812775
C -15.618869   1.236528 -11.255107
C -18.407282  37.177139 -16.004549
C  -9.008822 -10.848870  -1.172509
C   9.246652   0.889636  -0.357652
C  11.025451 -22.497732  15.552666
C   6.814983 -13.707638 -13.040561
C  18.839836   5.188298  16.980852
C -12.378094   0.677886   1.371993
C  -2.712319   7.672046  -2.518390
C -39.124290  23.182276  25.969843
C  42.262249 -26.362606 -24.906178
C  -5.428174  -3.491430  26.558941
C  19.059509  -6.500412  -5.583773
C -16.695000  32.151848 -11.596896
C  -6.699407   5.555997   6.172641
C  -7.030316 -24.010031 -20.730776
C   0.665008   4.824280  16.314823
C   6.772923  -2.697638  -5.324288
C  -6.337912  16.307491  -3.850392
C -18.162600 -23.559385 -44.737049
C  -0.900686  12.640812  12.900683
C  10.180164   1.134438  27.510679
C   2.623702  -6.204409   3.827991
C  73.874458  44.173717 -13.963400
C -37.421673 -15.288874  12.691866
C -21.292973 -16.113903 -20.501209
C  -3.610723 -13.621122  16.565428
44
44
C   4.947430  14.779133 -15.485670
C   3.769574 -10.596474 -44.587528
C -13.764150   7.382180   1.640115
C   5.779209  18.315666  31.631691
C   5.129390 -43.648712  30.837749
C  -6.160204   5.475003   1.134614
C   0.239073 -17.194260   8.411304
C   2.653815   0.977404   2.077030
C  24.885412  -6.519357   3.549546
C   5.442483   8.616896  -6.626083
C  -1.356724  10.910761  -9.432617
C   8.031891 -19.041735  -4.330733
C -40.518589  13.596221  18.684164
C  16.002165   1.123748  -7.986598
C   0.517266  20.668980 -12.381751
C   9.912700  -4.066863  30.171080
C -49.491024 -20.168913 -72.602364
C  45.655838 -13.917825  16.751247
C -23.712223  55.423325  65.120079
C  12.276517   4.088732 -11.358703
C -16.548321 -29.575748 -17.342909
C   1.081606  -0.857640  -6.209053
C   5.900094  -4.121623  -1.027020
C -19.447989  -2.370930  28.538084
C  -5.935770  -0.342097 -11.234336
C   6.937470   5.344851 -23.526243
C  41.428806  -5.852275  11.196229
C -13.822457  11.853298  -0.430134
C   1.445327 -13.369913  -2.573252
C -10.352073   1.781206 -15.537934
C  24.523155  -7.109501  11.677316
C  -5.678845   0.869468   6.015816
C -18.881407  20.225863 -24.803221
C  -6.427759  -7.984758   7.327965
C  11.217663  -8.435577  21.030416
C   3.648831  -4.020514   2.538258
C   0.339974  17.741867 -66.319794
C  -1.149200   6.071568  59.486416
C -15.270459 -14.554073 -13.105490
C   6.658796   6.397498  18.598295
C -13.750370  14.230304   4.537386
C  -2.152126  -1.550148   2.828407
C  15.096190 -21.284304 -24.365288
C   1.077810   9.792631   6.824381
44
44
C  12.541460   2.460475  -6.882425
C  -6.148497  -0.979730  18.799551
C   5.599156 -15.612611 -14.351537
C  -1.687708   8.587713   6.522712
C -17.227354  11.190056 -17.972588
C   8.582116  -0.791624   6.752729
C   2.434530   3.635495  10.019806
C -20.942394 -19.716963  13.176723
C  17.623764 -11.359360 -41.225925
C -10.930671   4.494275  -5.106729
C   4.899727  -0.342580  -6.391376
C  -8.291367 -18.881847  17.898640
C   6.734205   0.819857   7.248532
C  13.319941  23.620623  -3.921662
C  15.587057  16.862091  15.644098
C -14.530277  -1.406867   7.711214
C   7.361338   0.597374  11.516008
C -16.043745  -4.984126 -20.066244
C  13.078153 -17.053778 -21.136047
C -11.716002   7.305086  -7.912591
C   7.408107  23.996841  15.042659
C  -6.544815  -8.882840  16.496271
C   5.900862  -2.163873   8.528071
C  -5.265400 -20.800955   9.721165
C   9.299853   6.462811   6.529153
C   3.374565  13.098834  14.136920
C -61.682678   7.119423 -41.845715
C  15.223881  -3.233006 -12.650521
C  36.191227 -13.316376  26.677498
C  -5.930485   3.099269  -4.067408
C   0.242335  20.408825  -1.069520
C  -3.451037   8.184674   4.852013
C -49.564461 -19.737671 -17.714853
C  34.406731   6.537484  -5.285973
C  16.079651   0.553275  29.260656
C  -2.285670   3.416004  -6.953604
C   5.540949   8.992282 -21.384636
C   5.484639 -18.163099   3.896290
C -33.558376  -1.885059  29.594151
C  10.025229 -11.231582 -13.486922
C  25.754601   7.344521  -4.143322
C  14.593337  -0.795266  -7.006397
C  -6.374507   5.007366  13.778183
C -14.307831  -4.477012 -10.705544
44
44
C -18.888941  -7.598441   0.385241
C   1.351154  33.503475  14.966250
C   6.806008 -13.883221 -14.044312
C  -1.316627   3.441506  -8.770425
C -56.626663  -8.898033 -11.590969
C  27.742052  15.414268  -3.224616
C  68.646667 -13.646160  19.662378
C -23.734686 -22.154203   9.146381
C  37.635983  19.656290 -28.530956
C -22.694256 -18.002655   0.604995
C  -2.091625  -7.401237  46.110184
C  -2.074271  10.586353 -20.065794
C   4.226421   6.336649 -10.614186
C  -6.184262  -6.110810  -2.818463
C   3.837773   0.487850  -1.889571
C -25.912279   1.472817 -17.446682
C   7.186832   1.711268  -0.339115
C   2.246324   2.735604   4.841719
C -35.838341  -1.171117 -22.418934
C  -2.492035  -3.325135   9.417188
C  13.782426  17.407755  43.803856
C  21.032772 -13.642694  -6.441002
C  22.162807  18.684065  -9.420275
C -28.549643 -15.464343   2.041310
C  -5.571199  -2.795803   0.851519
C  -5.573636  -7.719749  -1.355287
C  36.378849  13.157763  30.695795
C   2.979140 -11.143552 -17.456964
C  -0.488421  26.519295   6.017891
C   1.147456  -4.588006  -5.070168
C  35.733406  -9.992103 -56.829765
C -24.889505   8.340176  50.104492
C -63.667057   2.560469 -58.896198
C -11.944219 -18.111048  -2.119137
C  29.240999   3.679749  53.946533
C   9.755239   0.243802   7.067477
C -11.685114  24.176094 -49.313377
C   1.253010  -3.244109  30.497635
C  10.836094 -21.883762  50.043972
C   5.447165 -13.382737 -23.688334
C  10.120224 -23.025362  -9.424625
C   7.687642   4.326458  -2.758528
C  -7.975280  15.360410  -5.520044
C  -8.262624  16.757877   9.819014
44
44
C  10.482544   1.048395  -0.304635
C  -0.964500 -25.503124   4.583085
C  -4.628576  -1.222726   0.088035
C   1.482520   5.671954   7.084025
C  -6.880331  11.920722  -2.821236
C  16.177822   0.346927   9.690291
C -37.327469  -3.996065 -36.883968
C  27.559412  17.494499   9.936550
C -35.006878 -42.204704  34.306202
C  25.059462  27.659737 -12.707894
C  -0.774248   0.582104  13.147820
C -12.651002 -16.499529   3.705920
C  10.667940 -13.113220  -5.923940
C  10.203804  29.110544 -12.723336
C -15.900854  15.180320 -13.001676
C  -5.602214   0.984740   4.004340
C -25.474981  -3.713783   4.858725
C  12.693010   0.505230   7.420262
C  64.395073  -4.474270  10.551010
C  -8.580158   0.088537  -8.866370
C -21.205738   5.475349 -19.574186
C  -7.814481  -0.739008   5.493956
C   0.648619   9.974180 -22.492052
C   3.008168  29.932951  25.751846
C   6.446905  -9.883306 -15.251483
C -12.548549 -13.776550 -10.225239
C -10.294423 -21.003651  32.604279
C  29.399492  -6.281726  -5.296944
C  29.447523 -14.502484 -26.482880
C -13.785709   8.704936  22.869059
C -12.411392 -19.902925  22.975765
C  14.376590  12.494976 -13.145162
C -39.835079 -12.454300  -2.400268
C  11.264646  21.999723  13.702951
C  18.628122  -0.124470  -5.083607
C   5.654244  -0.151040 -11.254018
C -53.345802  15.313711  34.024536
C  19.693089 -13.162912 -34.427578
C  -3.006814  29.767605   2.806244
C  -4.195726   0.011333  -2.465615
C  21.209120  24.880739   0.795557
C  -4.946356  -5.311022  11.203860
C  -4.207466 -45.126274 -24.431150
C   2.665878   3.933143   3.887965
44
44
C  -8.316150  14.235950  -8.998324
C  26.830936  -9.533168  38.938725
C  -3.319353  10.499749 -13.795365
C -20.149704  -0.097498 -18.554798
C   5.369885  -6.752478  16.071909
C  -4.409935   4.131592  -8.538201
C  -3.006038  17.923983 -27.009481
C -13.319079 -22.874498   1.703163
C  14.694217 -65.538383 -24.093559
C  -7.757590  10.386790   1.925665
C  29.328011  52.558838  54.638844
C -10.007247   8.522204 -25.537853
C   4.467009  -4.954025   1.020825
C -13.089853 -21.655926   5.953105
C  98.791649 -15.364341 -20.766396
C -70.212425  11.792432  -3.912499
C -36.498894  15.925199  53.669884
C -11.830329  -5.023395 -20.720688
C  26.753729   8.954946   6.844281
C  -9.897676 -14.798938  -2.341856
C   7.356189   1.671435   8.474638
C  -5.658121  10.661269 -13.997107
C  -4.640097   2.382001   3.992500
C   2.193238   0.516695 -12.831097
C  -8.522109  -1.863166 -15.179544
C  -7.930877   4.713405  -8.617275
C 105.099190 -94.668671 -21.262226
C -43.840618  60.926403  62.111946
C -46.851910  50.775097  20.465315
C   3.220501 -18.180214 -15.887417
C  -1.189924 -46.989586   6.722326
C   6.946115   3.851399 -22.757774
C  17.284533  -4.155299  -8.590825
C   0.625835   6.289518   6.263130
C  -8.954474   4.123883  -7.857430
C   0.538678  13.162960   7.174433
C -13.333033  23.811733  22.218590
C   5.404460  -5.957836 -53.280991
C -13.701272   8.112541  38.801502
C   7.581549  -2.002882  -3.353518
C  19.203934 -10.886874 -39.186157
C -22.552010  -7.145749  10.996739
C   4.349563  18.853243  34.017986
C   3.162182  -6.656889  -8.022020
44
44
C -30.381985 -11.258554  10.196918
C   8.005820  30.831238  -1.359722
C   4.865817 -17.219694 -11.009074
C  16.895451  -3.428115  -4.184233
C  28.533211   0.245541  20.806343
C -30.017269  -5.487936 -14.743082
C -15.392792  -5.540385 -18.160425
C   5.012157  19.874121   2.789657
C  -9.019556 -44.336773  32.421051
C  34.616730  34.534264 -16.774408
C  -5.837878 -25.536915  35.042976
C  -7.206627  29.012695 -19.150782
C   2.200767  10.508293  10.590693
C  -2.402459 -10.113008  -3.802004
C -28.082092  13.902598 -45.708797
C  17.662981 -10.542811  33.477158
C  12.362600  -5.832232 -23.370104
C   3.660333  -1.368983  13.681366
C -40.395409 -29.126133  18.391710
C  39.136795  20.162779  -2.366665
C  -9.053683  -5.449354 -11.893634
C   1.090639  16.746277  -4.588984
C  -5.723502 -11.146274 -19.522758
C   9.070427 -20.732037   3.553338
C -16.313866   8.890074   6.205882
C  13.759780  27.603277  -8.487077
C   5.779809 -25.918264  35.387554
C   0.682735   6.799411 -11.177318
C -49.687637  24.379881 -39.523148
C  10.142714  -4.919551   3.258945
C  61.291142   4.627068   4.361490
C -11.858498   5.422450  16.953165
C -22.890230 -30.981518  37.485405
C  13.359442   4.069445 -17.554352
C  -4.941749  -6.583390 -12.637399
C  -1.903046   9.906348  -7.265266
C  17.528080 -15.533819  80.376274
C   2.314141   1.619975 -37.464806
C   1.474462   3.047183 -16.840107
C  -1.202691   1.616843 -21.046185
C  -8.012129  -2.197659 -57.202503
C -10.650280   5.829148   4.381452
C   1.589690  28.139683  20.162094
C  -0.750596 -14.671610  33.368763
