44
44
C   0.782977 -10.760134 -21.894819
C  -4.577050 -13.802450  41.619251
C  -5.321871   8.884674  -4.683198
C  12.714364   5.288532  -7.111458
C -17.582964  47.306229 -15.895401
C   0.696028 -22.877720   4.584005
C  17.517317 -16.301342  16.585737
C  -5.378614   4.526832 -11.680957
C  54.206989 -35.243896   9.458556
C -29.326921   0.195791  10.296691
C  11.726391   1.772987 -21.476353
C -14.421967   3.615917  -2.788043
C  -8.236607  -8.047654   5.358104
C  -4.946252  -5.482116  -9.431121
C  -6.230457  56.594143  -1.644842
C   4.659216 -10.890028  12.220302
C -14.428183 -20.793299   6.310033
C   2.701149   6.096351  -6.940138
C  14.566701  25.526117 -12.889064
C -18.048536 -14.026877  12.443083
C  -5.272652  -3.926533  -3.979662
C   7.356439  -5.491826   3.558141
C -13.425524   3.522533  -5.326243
C  26.786680 -18.222057 -34.485058
C  -7.324192  16.321379   5.500439
C  -9.085121   0.634095  19.734903
C  -9.450554  -3.661520  39.549831
C  20.122437  -4.752326 -15.281782
C -18.481298  11.721984 -40.188004
C   4.455400   3.526192  29.323776
C  41.639999 -12.758265  11.760460
C -19.248583  13.285547   0.371619
C  36.453346 -25.401632  -0.764128
C  -5.764217 -16.322201   1.187320
C -24.836702  10.835650 -24.401377
C -14.323659  20.796354  24.771023
C  22.111296 -31.799612  -7.507540
C -10.049934   5.288704 -27.321712
C -32.140503  56.005241  21.733946
C   9.000667 -10.081939  -3.498281
C  -3.510314 -20.385252  -5.932608
C  10.419038  18.255510 -14.226752
C   3.528287   0.391082   7.259006
C  -0.203386 -11.124571  14.713553
44
44
C  -1.571063  -9.636419 -15.927719
C  -1.024487  31.931095  13.727885
C   2.325704  -1.451572   4.012485
C   6.748560  -1.697902  -1.699659
C  -1.285796 -22.864454   4.797653
C   0.344884  -1.553209   0.240013
C  19.223911 -41.577705  22.550816
C   5.933182  18.544964  -8.340008
C -29.335997  -6.587446  -8.861419
C  34.413609   4.483445 -10.963756
C  -1.721412  41.371735   0.253166
C   5.782026 -26.930799   6.604409
C -21.185663   8.752831   5.026227
C  18.687824  -3.136152  -4.323908
C -112.772919  27.473101   8.576303
C  58.331215 -11.440271  -2.886900
C  78.029655  -4.309675   9.165402
C -61.154312 -15.297275 -24.223415
C -46.262623  42.811829  24.638924
C  32.921623   1.168370 -11.097907
C  -4.060129 -13.004422 -16.802773
C  15.525205 -20.306328   5.662925
C  11.282309 -19.878939  -9.977305
C -32.760494  13.774776  42.770115
C -15.830205  -4.611687   3.455785
C  28.620159  23.678343 -12.813230
C -14.322581 -11.990549 -56.645123
C  10.067284  -1.352027  -3.163896
C  26.197300   6.212443  57.783733
C  -4.544264   4.252524   8.092022
C -18.774349 -25.257824 -26.501457
C  15.965592  -9.449622  -1.582612
C -13.263521  -6.099730   7.101429
C  10.724833   6.393528  -9.116113
C  -2.318063   5.664034  -2.223559
C   8.406982  18.224348   2.755747
C -31.827082  -4.517990 -37.876972
C   0.389998   8.840574  16.535448
C  25.979382 -10.295010  13.540479
C  -7.185089   0.620017  -1.659606
C   7.577070  11.883068 -20.244150
C -15.231659  -9.468766   8.568830
C  11.030035  14.278013   5.164887
C   0.156225  -9.324192  15.480848
44
44
C  16.305117 -16.577732  -3.305132
C  10.571447 -10.777752   5.672419
C  -2.707640 -10.355338 -18.011715
C -29.479326  -2.277905  35.445755
C  34.563259  13.381067  17.761223
C -28.435154  -7.343960 -28.910965
C  -1.416269  60.820133 -17.809721
C   8.848581   4.728773  -1.020862
C -74.041779 -62.017498  28.376348
C  36.499176  18.055923  -2.331656
C  14.977451   7.126713 -11.004413
C   0.030109 -16.114494   1.219549
C   3.559268   5.183076  -5.707718
C   4.330924   9.766032  15.351416
C  23.893867   8.168453 -16.129145
C -28.385904   5.239338   8.175196
C   6.320235  -0.717949  -5.184119
C  -0.823012  -1.775088  -1.262128
C -14.144029 -33.564915  36.407986
C   5.053205  11.192477 -24.894768
C   9.809315  13.362907  -1.353398
C  -1.431937  -0.146103  -9.320007
C -10.181057   2.657697  -0.924078
C  35.423737  13.169439  22.243961
C -10.154176 -10.126130  -3.819133
C  -7.239434  -6.179068  12.407420
C  -0.419230  11.415057  -3.038082
C -11.882779  -1.895097 -14.910889
C  13.790429 -25.152555 -13.444127
C -12.644929   9.990973  18.284466
C  -3.871043  38.497932 -42.788136
C  -8.912220  -6.867969   0.643291
C -29.011253  47.866909   0.552577
C   0.396494 -12.694452   7.842112
C   9.969775  -8.867908  -2.649384
C  16.301954 -39.099632   4.785537
C  30.100439 -10.548574 -32.310989
C  -9.497534   5.821429  14.683729
C -10.716305 -25.628384  -4.047619
C   3.616447  22.845127  33.616665
C  44.155529  -1.883168   3.165886
C -24.969242  -1.283262  23.942236
C   4.631306   5.229604  -1.976336
C -14.779422  -3.562356 -25.133904
44
44
C   2.461343   3.913939   6.924079
C  16.415712  16.669235 -19.774971
C -36.252514   4.825441  -3.748490
C  -0.077296  -4.612394   9.233201
C  42.395641 -51.005569  -0.949424
C  -0.295823  15.402357   9.552386
C -15.112988  53.604427 -14.647900
C  -7.914775 -32.920406  -2.475553
C -10.752110 -33.739407  47.918118
C  -6.789285   9.301095  -0.795504
C  12.285063   8.939791 -22.263418
C   4.168566   3.307961  -8.886170
C   9.276096   4.721925  -5.749077
C -27.024796  -8.649123  14.348294
C  21.162544  22.201351  22.276566
C   4.815176 -17.613352 -16.429983
C  38.328564 -20.421665  -8.805515
C -46.821819  31.722919  -7.023167
C -35.322884 -25.738657  -3.763987
C  18.201927   5.522563   0.747058
C  14.370832   0.205050   9.220534
C  -0.195770   9.679580  -4.992053
C  -2.154746 -12.039503   3.375863
C  13.322559   5.668165 -20.915747
C -18.261110  -3.632437  11.117637
C  10.528200   9.146101 -19.898746
C  32.855648 -12.560403  28.779709
C  -7.264081  -2.776821   2.735619
C -59.961063  50.664955  -4.878317
C   8.314200 -28.709993 -14.288731
C  38.048100  28.479153 -18.444939
C -20.215351  -6.889359  14.147791
C  -2.684099 -28.133896 -10.252682
C -12.179740   2.007729   6.189293
C  20.408340   9.142061  23.153921
C  -6.784964   1.027505  -8.507909
C  17.834200  18.969191  55.148479
C -10.911459 -22.224113 -57.265762
C   1.546454 -25.929504   5.703338
C   9.099679 -16.422634  -9.026721
C  -8.139703  40.044384  -8.902012
C  -3.420312  -4.242102  -2.888395
C  -3.409997   8.985299  -3.923193
C   4.784071  -6.374411  26.683907
44
44
C   3.875800  -3.651525  12.306404
C  35.235847   7.375374   0.202559
C -21.134510   2.815988   7.411679
C  -2.197772  -9.518875  -7.476840
C -26.606640 -26.120977 -11.502645
C  11.513448  13.733148   5.984942
C  -0.383184  -0.117788  -8.885219
C   6.353941  -2.789845   4.290134
C  -9.360838 -19.946407  17.178230
C  12.336034  21.830643   8.733240
C -32.652023  10.059628  -7.921819
C  -7.625923  -0.803786  -7.930305
C  18.038532 -16.315403  -3.481540
C  17.086018   8.191126   4.897929
C -15.706305   3.977954 -29.728214
C  10.689400   0.654684  -1.579556
C  13.036890   5.807148  15.471193
C -10.084696  -5.638067 -16.126751
C   7.152405 -20.032135  10.116962
C -11.799590  -9.252220  -1.123332
C  15.622631  22.630035  21.463264
C -10.736073  17.666874 -12.359159
C  40.642769 -31.603844  -8.479000
C -39.621376  53.587616  53.013741
C -10.589467 -29.961363 -19.040102
C   8.754972  14.864375 -15.085184
C -48.387005  24.288256  51.839516
C  25.516964 -24.412395 -54.624920
C -28.032732  48.972359   9.395984
C  36.722824 -36.346436  -6.793229
C  43.682220  20.875280 -21.698946
C -29.419615 -10.069462  29.261177
C  -5.677872  -9.636838 -55.954353
C -13.440767   6.584774  18.654753
C  10.772958  -1.000569  24.970610
C  -3.942364  17.813499  -1.670468
C -24.872671 -33.296326  -6.412258
C  14.620304   1.939861 -19.564737
C   8.767749 -13.305894  38.396511
C   3.335333   0.748983 -17.799278
C  16.771544   1.574147 -19.918320
C  -2.805548  -2.541042  12.601608
C  -4.779316  -3.581192   4.858783
C  -1.242758   2.768393   4.269998
44
44
C  26.073645  24.331923   3.853313
C -30.070263 -15.824178  20.290014
C   2.233202  -7.751089 -11.025735
C -11.596312  -3.871761 -15.474748
C  46.115303 -18.001610  25.238665
C -11.310236  10.304745  -3.618048
C -29.828812  52.512058 -57.526768
C  -7.455834 -31.591431  14.898821
C   7.101186 -38.447006  13.487444
C  16.463963  17.235720  -9.918804
C  12.742207 -14.690116 -11.903870
C  -1.819117  12.171429  -9.463868
C -11.095130   6.079010  15.390446
C  -3.541058 -11.846935   0.905246
C  12.780835  10.327792  57.833427
C -27.115393   2.838826 -31.300158
C  25.947622   2.682699 -12.523848
C -28.810974  16.134237   3.700946
C  12.635010 -76.027863   1.913574
C   6.370329  32.416298   1.721580
C   3.604420  12.762086  20.609755
C -13.557942  17.900938 -14.564943
C  15.477487 -29.535393   2.728923
C -21.002125  11.630081  58.264771
C  -2.384133  13.079169  -9.983601
C  16.892033  -4.018779  -0.439740
C  20.468779 -17.466488 -52.799667
C  -6.682983  10.940072   8.145670
C -14.974101   9.627642 -13.536105
C   8.271146   1.008260  -1.771932
C -22.931454 -10.497602  19.911995
C  18.986332  -8.684314  -0.353098
C -28.297430  10.695002 -21.961475
C   0.452568   5.374723  -0.028959
C  16.041517   9.634703  21.061678
C  20.641720 -16.594200  -1.451153
C -43.777714  29.509254 -33.492359
C   5.363603  -0.277844 -16.391523
C   9.551170   6.051083  87.340652
C   0.672557   0.572055 -38.741623
C  -6.951077  -4.298313 -17.558626
C  -7.372869 -10.348750  12.766196
C  18.006887  -7.179103   6.429055
C   6.622109   0.276951 -11.022432
44
44
C   1.604032  -8.055426  11.160354
C  14.141428   8.158437  37.893677
C  -3.766252  -2.976732  -2.124063
C  -9.028090 -13.191198 -43.395130
C -44.770428  50.284424 -42.416233
C  -6.950947 -28.889700   9.928192
C  23.357996  -7.839306  -3.334721
C  12.643381   5.691839   2.861015
C -47.168892 -41.856091  31.013268
C   3.743267  16.188030 -11.709997
C   2.015343  32.067314  19.301077
C  17.553923 -17.876858  17.013241
C   3.123315 -15.028745 -12.136064
C   7.663017  12.183678  -2.798435
C  19.657566  14.166718 -24.356279
C   5.848248  -9.383908  10.542520
C -17.964527  15.051058  21.145647
C   8.074766  -8.144024  -4.513624
C  -2.691080 -31.955225   4.968143
C  -6.770638  -1.596432 -15.790132
C  10.104362  27.026030  -0.005570
C   2.908753   3.048230  -0.127090
C   5.727383 -23.030220   8.692697
C  26.913584  40.227234 -25.364309
C -12.840632 -14.784333 -14.733870
C -20.758255 -11.321081  26.132881
C  38.945892  -3.482406   3.377225
C -10.500725   8.278225  14.227184
C -61.222443  34.838165   7.109357
C  19.119921 -25.763718 -13.798299
C  39.510662 -29.356947 -17.458473
C -15.007272  -2.589278  -0.045254
C  13.289664  56.044128  20.292301
C -14.642188 -13.766175  -1.590798
C -11.100264 -12.727039  -5.848210
C   8.310723  -9.752724  -5.195467
C  22.447319  14.787975 -60.378166
C -21.191387   8.546870  14.481802
C   0.752890 -21.297096  45.580544
C  -8.868148   4.434654   0.772813
C  -5.379909 -29.004059 -15.287742
C  -1.387123  -3.838806   2.682917
C   3.913336  25.126211  -1.916292
C   9.996804   9.582100  14.860858
44
44
C -34.855480 -36.156895  -8.095927
C  34.005875  27.995569  41.414406
C  12.704802  -9.622672  -6.029016
C  -7.598127   1.094103 -15.870571
C  -9.739902   6.451112 -32.890114
C  19.993425  24.299728  17.407341
C  -4.108568   0.412248   5.444349
C -17.498764 -33.505341  12.987875
C  54.505127  20.985220 -21.384947
C  -1.803844   3.943929   7.080707
C  -3.705410 -38.189342  19.170280
C -10.038413   6.655128  -8.713441
C   1.009787   5.510015  -2.512747
C  -6.367709   5.978574 -14.430349
C -40.388515  -0.246644 -21.681858
C   3.346792   9.368943  18.825396
C  56.345356 -25.835564 -32.194878
C -32.199047  16.281521  15.409646
C -36.959965  -7.042716  33.226669
C   9.380390  15.996521  -7.968623
C  10.310584   3.522414   2.598694
C   3.210526   2.173699  -2.255407
C  16.852345  -8.113245   1.815006
C -24.726131  13.766179  21.479141
C  23.566456   3.987181   0.545161
C  -7.868937  -7.617442 -15.830871
C   6.264013   5.113836  11.698868
C  14.597627 -18.379572 -14.301966
C -28.383413 -16.387926  54.902157
C  28.507931  -3.967624 -27.075424
C -20.266270  36.123329 -71.613541
C   5.705450 -11.316716  24.151505
C  16.200382   3.948786   3.398402
C -16.097956  -7.714309  20.060656
C   1.535396   1.101063  -4.299674
C   8.766355 -13.699988   0.185820
C -17.502668   4.329803  12.620363
C   1.365037  -0.680124 -20.413448
C -12.268258  13.340458  -0.481669
C   2.702989   4.470964   9.785204
C  20.795834  32.991379 -49.617161
C -13.823693  -0.477806  18.397556
C -11.583685 -30.946373  -2.795788
C   6.016199   0.198745  27.265360
44
44
C  -9.879745 -13.952957  -1.551804
C -10.419626  55.302723   4.596767
C  33.859425 -12.061484  -4.997258
C -10.137495  -7.595033   4.871545
C  -3.882343 -58.226219  -4.258240
C   8.234002  14.073220   8.264732
C  -9.059392  25.416014 -19.262417
C  16.615231   7.139375  -3.030794
C -27.024786  28.445107 -12.017882
C -12.913271 -16.654943   1.813560
C  -6.149953   9.058117  57.439575
C  -5.839398  16.550299 -10.848401
C  20.045412 -28.086061  -9.743350
C  13.565392   3.902075 -15.049086
C -22.099812 -24.047977 -31.997717
C  35.639801  -0.479871  35.937641
C  16.367523   4.123745  -0.446984
C  -5.176407   6.995527  -2.831851
C  26.425653 -18.841412   8.102759
C  -2.024308 -11.076089  17.468952
C  19.915833  21.400625  -7.924295
C -50.827972   5.383588 -23.659254
C   3.882705  -6.561617   8.740940
C -54.874458   2.658736   6.673679
C   8.857887   3.284082  -4.780437
C  41.283989  -7.841168 -11.410107
C  34.996922 -12.077789 -52.715816
C -36.512959  13.417337  63.684132
C  -7.440115  17.131989  23.459816
C   0.774824 -21.537771 -32.406178
C   7.560574   5.136330 -10.080322
C  -9.558797 -11.448695  10.319298
C -46.557983  31.361977  12.557107
C  34.793079 -23.640091  -3.796368
C  18.097826  -1.423879   2.639997
C  -7.963484  -6.097603  -4.707217
C -19.585051   2.224623  13.543667
C  18.298557  -2.432375 -10.600554
C -36.675983  26.170118  32.910530
C  17.256510 -11.592294 -23.121328
C  -6.197270 -21.912392 -13.366466
C  14.628559   3.071111   2.102186
C   1.192826  15.464397   4.064775
C   7.617803  -0.811168  -4.452364
44
44
C  -0.267426 -12.014695  -0.311483
C   3.016980  17.081940   1.090562
C  -6.708778   4.517064 -11.232981
C   3.794380  -8.813798   6.331440
C   1.064443  -7.830469  19.593576
C  -6.284497  -1.167791  -5.117479
C  22.039017 -32.833981  -0.959374
C   6.405081  19.027370   2.629598
C   0.905740  44.752773  -7.790460
C  10.582257  -3.503257  -5.348018
C -72.119492   5.831327   3.657330
C   3.168566 -13.632480  24.465302
C  18.320715 -14.781653   7.513081
C  34.727840  16.974525 -25.952265
C  16.055887 -22.410812  13.520144
C -36.251675  12.956737 -18.322573
C  10.054399 -30.013224 -34.607491
C  13.692881   4.623170  14.844131
C -12.565948  21.548203  30.376713
C   7.573163   8.228693 -12.149061
C   9.040925  -1.128093  10.360293
C -17.132814  -8.368971 -12.011114
C  10.166718  29.520544 -17.634600
C   0.949672 -42.157833 -12.624799
C  -1.736224  -4.204321  10.369964
C -16.859789  22.344501  11.760130
C -11.676003 -11.379025   5.288190
C   2.001831  -2.830511  -7.029830
C  19.067827 -11.175688  -5.938956
C -10.151542  14.896976   9.996197
C  -4.721512  63.734146   5.219929
C  14.822497 -14.539483  -0.903580
C -26.973003  18.787788  11.786787
C  14.669940  -9.093513   1.728099
C  -0.135831   0.901455 -28.207808
C   4.469237 -21.038128  12.982007
C -29.089907 -26.294147  68.193321
C  32.418411 -28.249565 -52.684258
C   2.143737  11.160676 -14.115063
C  -1.693022   2.434669  17.112364
C -20.114578  27.376642 -41.844585
C  -1.977636   0.172008  10.699489
C  -1.648744 -24.570850   0.573799
C  15.541345   3.667007  14.936374
