44
44
C   1.306088 -10.360367 -21.910263
C  -4.717669 -14.003298  41.589382
C  -5.269352   8.772663  -4.808172
C  12.980910   5.628349  -6.768503
C -17.074270  47.294651 -15.774645
C   0.635845 -23.094936   4.383901
C  17.488455 -16.349733  16.806229
C  -5.152696   4.900644 -11.588189
C  54.190781 -35.264862   9.568381
C -29.783054   0.288414  10.258086
C  11.742966   1.663117 -21.463285
C -14.537265   3.930351  -2.763477
C  -8.331917  -7.857279   5.260461
C  -5.204802  -5.074296  -9.689637
C  -6.512772  57.362690  -1.975981
C   4.741088 -11.023832  11.624174
C -14.222124 -21.037317   6.519222
C   2.678878   6.183877  -6.949696
C  14.756058  25.525953 -12.826327
C -18.261316 -13.971546  12.408554
C  -5.231211  -4.130346  -4.022999
C   6.941728  -5.465434   3.130475
C -13.260015   3.762384  -5.024485
C  26.894768 -18.544977 -34.690586
C  -7.155025  16.390001   5.713281
C  -9.098183   0.454494  19.842270
C  -9.493460  -2.821777  40.165752
C  20.648315   0.484510 -12.421274
C -18.159979  11.120226 -40.335884
C   4.107857   3.925221  29.397053
C  41.686420 -12.896981  11.720509
C -19.385107  13.569523   0.289943
C  36.736389 -25.655188  -0.882715
C  -6.103117 -16.269644   1.382068
C -24.616964  11.104737 -24.403219
C -14.769067  21.153444  25.092009
C  21.684410 -31.161386  -6.782753
C  -9.911358   5.139721 -27.189663
C -32.174557  55.553001  21.270182
C   8.898530  -9.802219  -3.218452
C  -3.544364 -20.364120  -5.900471
C  10.160993  18.061609 -13.921185
C   3.651693   0.658771   7.666035
C  -0.103116 -11.322762  14.773170
44
44
C  -0.519258  25.209229  13.048586
C -31.875681 -19.581211 -22.596085
C   0.829720   2.295620  12.433735
C  27.397903  11.617902  -5.447831
C  -7.032307 -19.587221 -40.562893
C  -4.407749   2.522199  12.884837
C  32.986980  29.852037  23.003998
C -32.917519 -28.668741   0.510215
C  -1.287692  26.471790  16.184361
C  -3.195411  -8.941870  15.439881
C  13.104379 -45.079563  14.251497
C -10.790889  30.510719 -19.568611
C   0.375998  -0.759384   1.961788
C  -0.208401   0.452994   4.014610
C   7.145046  -3.405950 -51.001904
C   1.164273   3.244839  24.029119
C  35.300003  -7.381207  18.193108
C  -8.409291   0.263943  -3.219957
C -38.809998  11.682742 -73.417213
C -13.190691  -4.547355  11.399414
C  28.142630   5.680257  36.293945
C   3.787889 -13.743299  13.269790
C  -5.410046   3.426921   0.211409
C   2.621964  -4.315501  -8.244935
C  11.396410  12.751696   9.825173
C   0.740452  -3.351820  -6.723237
C  23.782274 -26.961023  21.174866
C  -8.448284   6.606911   1.781754
C -59.950718   2.194593 -35.498901
C  10.292173   3.952623  14.689496
C  20.953619   7.617003  -6.247107
C   8.660551  -5.163507 -18.007471
C -18.409733   6.091978  22.174665
C  12.380664   0.118519  -7.089770
C   1.918561  -4.153935  -0.669899
C   1.885244   0.431292  -4.827919
C   8.005148  11.959755  64.422523
C  -4.675913 -15.326171 -30.937399
C   0.614223 -28.929884 -29.432487
C  -6.382142  26.503687  32.530552
C   4.446910  35.199074  -7.241575
C   2.503124 -13.212658   7.282109
C  -5.129343 -12.493248  -2.077240
C  -2.761063   2.381942 -16.038773
44
44
C -14.838802  16.286964   4.440214
C   2.297533 -18.607340   6.887092
C  11.365397  13.713987  -0.829350
C   0.540678 -10.909478  -7.721459
C   6.604305   7.983386  -7.388654
C  20.427744  -5.905490   9.859764
C -48.465336 -33.321880  17.491325
C  17.818033  41.087345 -26.130186
C   2.188533 -41.550125   2.014143
C -19.203547   9.200150  -7.233884
C  17.540066 -11.978467 -11.584689
C   3.293287   5.138844  -3.977126
C  -0.961379  18.405149   5.584932
C -11.431589  -1.702470  11.864626
C  28.579134  -5.985758  31.023529
C -23.201912  10.001089 -13.690383
C -30.304142   9.650692 -22.187340
C  33.601665  -8.045545  12.129845
C   6.720916   6.393215  -7.053279
C -15.374376  -7.835221  -2.738765
C  16.724657  10.717767  21.800402
C  -5.258832  -7.240476 -10.552829
C  -2.446927   8.061538 -10.330200
C  20.257669  12.429553  13.398451
C -32.263790  -7.848650  -0.692225
C   0.930832  15.195535  -2.723951
C  -5.992802 -65.673737 -23.083918
C   4.426153  34.711975  -5.850415
C   9.891921  -5.050194  43.321106
C  -1.869860   4.873736 -20.607119
C  30.083403 -10.377820 -20.939718
C -18.051226  15.549286  22.247126
C  27.945023  -9.279938  -4.790135
C -17.569061   6.434949   1.638679
C  -3.761491   7.165340  26.020430
C  -0.347566   2.158453  -2.905189
C   1.064149 -27.404474 -11.987062
C  -1.347993   6.611619   0.682056
C -14.243440   1.771842 -18.855867
C  -0.070663  10.709503  16.023542
C  -7.388951  35.738628 -19.263750
C  17.426697   1.553745  -0.392743
C -13.825150 -24.920546  -3.635852
C   8.202556  -7.809150  21.746077
44
44
C   4.837324  -7.580918  14.098248
C  21.389606 -17.237011 -53.834522
C -16.607141  -3.120068  -9.741017
C -11.550141  26.648117  17.601807
C -30.145720  -7.305887  64.459984
C   1.062801   1.659047 -12.511466
C 126.100296 -20.255745 -19.458200
C -41.721012  -7.110988  13.519155
C  -4.551967  36.484417 -68.329590
C   5.768342 -31.312836  12.330776
C -52.042439  27.354912  -9.145523
C  11.776850 -35.161221  32.326057
C   9.126445   4.145498  13.093367
C  18.816154  14.217404  -9.258668
C -70.218468  -1.675914 -16.922148
C   8.052261   0.178657  -8.059061
C  36.043930  11.793649  53.821297
C -13.991791   1.370740 -10.986650
C -18.773184  36.278156 -16.455915
C  -8.936940 -10.795831  -0.707256
C   8.896670   1.077371  -0.625595
C  11.412389 -21.857676  15.260105
C   6.355361 -12.430924 -10.519635
C  18.068398   4.677664  14.672153
C -12.477749   0.568839   1.525912
C  -1.608956   8.458555  -2.945831
C -37.504581  30.847383  32.908257
C  39.895199 -26.165966 -26.781616
C  -4.362008  -1.721156  26.125723
C  18.996466  -8.963275  -7.140735
C -16.819263  31.759121 -12.991868
C  -7.970170   7.518703   7.376131
C  -8.534314 -25.056358 -21.951941
C   1.511958   4.573482  16.140499
C   7.482068  -2.557156  -3.951946
C  -9.902729  17.956974  -3.134339
C -18.210939 -23.588495 -42.678185
C  -0.478232  12.501473  11.750722
C  12.468502  -0.669565  26.496515
C   2.062297  -6.495049   3.672394
C  74.456703  44.537823 -13.873199
C -37.762199 -14.066505  12.722775
C -22.555649 -15.443919 -19.658335
C  -4.490287 -14.313418  17.009447
44
44
C   5.870148  14.872359 -15.101015
C   6.973527 -10.982377 -43.037590
C -13.878605   7.747850   1.969378
C   4.717354  16.385502  29.406273
C  -1.808107 -40.404282  29.859301
C  -3.252068   5.104445  -0.831167
C   3.586218 -18.716846  10.232934
C   2.677061   1.223563   1.889634
C  23.083672  -6.064358   2.395891
C   5.812265   8.132193  -5.736749
C   1.633083   9.436110 -10.866859
C   6.608771 -18.456856  -4.726321
C -41.901173  15.252801  18.500490
C  15.043942   0.272392  -6.788847
C   1.832477  19.541134  -8.506616
C   8.166629  -4.006129  27.897577
C -47.190041 -18.782267 -74.342392
C  44.376221 -15.218826  16.782187
C -19.897797  56.323128  68.310341
C  11.827346   4.767263 -12.352317
C -18.177866 -30.589437 -15.438892
C  -0.678102  -0.158224  -9.004719
C   6.255396  -4.479584  -0.606519
C -22.168114  -0.411458  31.034779
C  -3.854409   1.286640 -10.090899
C   7.387614   4.747540 -25.734816
C  47.293114 -13.338611   7.378011
C -15.391281  14.892272   1.918408
C  -3.470426 -11.907980  -4.900460
C -10.186133   2.323025 -13.548690
C  27.397985  -7.247254  15.129460
C  -6.164709   1.724007   5.158721
C -15.626970  17.114914 -26.662315
C  -8.645827  -7.366034   9.019434
C   9.980240  -6.107835  19.791935
C   3.783959  -3.054481   3.017652
C  -2.268692  15.795227 -65.854942
C   1.295613   7.127927  59.328442
C -17.028036 -14.755077 -16.734135
C   6.826290   7.999392  21.122616
C -11.895752  13.226465   0.274106
C  -1.580040  -1.408407   2.456805
C  14.496632 -19.471542 -22.607378
C   0.188029   9.535043   8.364355
44
44
C  12.744407   1.600541  -6.478626
C  -5.088525   2.048750  18.863073
C   4.812341 -15.532715 -14.232352
C  -2.816008   7.397387   4.945572
C -18.864624   7.440952 -18.933819
C  10.107750   0.303246   8.052226
C   4.659602   3.928212   9.878161
C -23.160170 -20.542454  12.771805
C  16.634270 -10.350767 -40.333183
C -10.100377   4.452924  -5.513497
C   5.481678  -0.387789  -6.655402
C  -9.353376 -19.169216  17.848585
C   7.068596   1.035244   7.654627
C  13.262361  23.254692  -3.783228
C  17.151669  15.573009  16.006289
C -16.377165  -0.951148   6.777115
C   8.995371   2.021553  10.297136
C -17.438742  -5.553480 -20.638731
C  10.982986 -17.859945 -19.766132
C -12.718761   7.051384  -7.443554
C   8.539495  25.656525  14.864630
C  -5.672319  -9.124726  16.473267
C   5.998265  -2.078808   9.946150
C  -5.506255 -19.464722   7.982846
C   9.155121   6.135304   5.920885
C   3.423091  13.305674  13.264352
C -66.228157  14.833080 -33.775249
C  19.580599  -1.366832 -15.170268
C  36.974297 -13.146605  24.919159
C  -6.418241   1.519623  -3.497714
C   0.766373  20.019333  -1.549545
C  -3.752768   8.748259   4.499196
C -50.156521 -16.598856 -14.484195
C  35.473774   4.032558  -7.079160
C  16.034622   0.911444  27.625319
C  -3.405382   1.965317  -6.085554
C   9.843890   6.713249 -23.336880
C   4.952350 -17.005981   2.763280
C -32.556831  -1.699676  32.360897
C  10.192008 -11.714211 -14.987776
C  21.736526   8.057364  -6.614532
C  15.381665  -1.238783  -6.922176
C  -4.596242   5.364328  13.799901
C -12.326825  -3.365432 -11.749615
44
44
C -19.186123  -7.734206   0.029266
C   2.661180  34.908688  13.572670
C   5.827648 -14.435061 -13.503965
C  -0.779015   3.599818  -8.069433
C -58.703495 -11.386407 -13.619224
C  30.533562  16.598612  -3.088971
C  66.897293 -12.993382  22.234730
C -23.452179 -22.938208   8.539021
C  38.400833  18.748390 -30.126431
C -22.016970 -16.479733   1.464631
C  -3.170185  -9.074470  47.595913
C  -2.193395  10.905444 -20.260397
C   3.256948   5.480382 -10.231116
C  -5.636530  -5.855851  -3.259196
C   2.938344   1.526203  -0.391870
C -26.306524   2.029358 -19.321615
C   8.235638   0.890726  -1.075680
C   3.344205   2.416985   5.045075
C -34.731941   0.343203 -20.999062
C  -4.159416  -4.300616   9.137321
C  14.476573  17.512518  43.723175
C  20.251417 -13.751614  -6.653059
C  22.094398  15.330458 -11.161600
C -30.824577 -15.081454   3.054655
C  -4.442921  -1.940657   1.924195
C  -5.272381  -5.037823  -1.582117
C  39.298187  13.105356  26.787386
C   1.734434 -10.404354 -13.666567
C   1.841218  23.734961   5.302315
C  -0.375576  -3.657154  -3.556015
C  31.465527 -10.123476 -57.390060
C -23.563786  10.644859  49.298359
C -61.984303  -1.827297 -58.081135
C -11.677554 -17.941423  -1.382066
C  29.941895   4.957190  54.067364
C   8.087781   1.590297   6.897099
C  -9.986519  24.267649 -50.130634
C   1.278740  -3.415000  27.314789
C   9.879786 -21.947334  52.532917
C   7.139308 -13.587533 -24.835218
C   8.119647 -21.509171 -10.950165
C   7.806749   3.541816   0.139635
C  -6.452253  15.163568  -6.029424
C  -8.068707  17.255592   9.091885
44
44
C  10.216537   2.108804  -0.905651
C  -0.162432 -25.985115   5.820814
C  -4.572415  -2.653053   0.327662
C   1.217185   6.017872   7.400356
C -13.678145  13.781889  -4.301704
C  16.114286  -2.121561  11.170222
C -28.357775  -1.771750 -35.858883
C  25.856588  15.407154  11.111219
C -38.173435 -41.019768  33.065975
C  26.590929  27.108534 -12.744598
C  -2.345516   0.951620  12.334779
C -12.335392 -17.321604   4.382727
C  10.223794 -13.557945  -5.758165
C  12.047916  29.935999 -12.757905
C -18.397905  15.430782 -15.175614
C  -6.673740   0.475885   2.922214
C -22.793089  -3.523660   7.296161
C  13.501647   0.924021   8.307631
C  63.734074  -7.470703  11.925857
C  -8.648402   0.367298  -8.972720
C -19.972462   5.885747 -20.215044
C  -8.549705   1.990913   4.723339
C   0.803654   8.245542 -22.953575
C   4.317224  30.650854  24.426689
C   5.474676 -10.246731 -14.749297
C -12.329854 -13.495146  -8.068191
C  -7.685405 -20.102745  35.230289
C  27.956987  -5.693987  -6.766240
C  27.418755 -15.869416 -28.930676
C -13.579103  10.015748  23.307659
C -10.674259 -17.018984  24.482769
C  14.782326  12.391119 -12.675729
C -37.085285 -15.106765  -2.035874
C   9.170822  20.980028  13.732750
C  18.039795   0.297662  -5.675063
C   4.747537  -0.561963 -11.726329
C -55.215443  12.885162  26.049250
C  19.907389 -12.136833 -31.923929
C  -2.836677  28.315393   3.418460
C  -5.457821   0.309047  -3.718738
C  24.424488  26.874962   6.436806
C  -6.389144  -5.611856  10.966224
C  -4.174022 -46.183361 -28.386295
C   1.028878   3.942774   4.716558
44
44
C  -7.653888  16.397554 -10.300081
C  24.439259 -13.683732  40.038765
C  -2.601699  12.530454 -12.193729
C -17.182806   0.249235 -18.235992
C   4.348525  -7.857321  14.430601
C  -5.200439   3.137093  -7.855124
C  -5.746338  16.439877 -25.907467
C  -9.095297 -19.213270   0.447051
C  16.705265 -66.096855 -21.615734
C  -9.854684  10.309988   2.301166
C  32.052109  52.521275  53.061649
C -10.144547   9.380858 -25.929880
C   4.005028  -4.769547   0.730124
C -14.987362 -23.033426   6.510374
C 101.622963 -16.068487 -19.838549
C -72.313461  10.338531  -5.038305
C -38.123695  15.468754  52.180580
C -10.066912  -4.348320 -20.109270
C  25.477133   8.552289   7.194409
C -10.317041 -14.753064  -2.497359
C   7.969083   1.894828   8.472169
C  -4.971019  11.375497 -13.105850
C  -3.378045   3.463135   2.648412
C   1.285528  -3.022566 -10.478399
C  -8.980163  -1.299312 -15.031357
C  -8.223784   4.549876  -9.489743
C 103.753860 -92.397430 -20.702820
C -44.870201  61.655376  60.812672
C -43.819347  49.942451  19.625704
C   1.894531 -18.111893 -15.768352
C  -3.424452 -46.120499   8.728591
C   7.486988   3.005874 -21.630369
C  18.266691  -4.723573  -9.672190
C   0.303959   6.764358   7.238583
C  -8.114006   3.511882  -6.999681
C  -0.164883  14.191805   6.867870
C -14.864669  25.590912  23.910818
C   8.600841  -8.416968 -56.413479
C -12.668009   6.220248  39.366535
C   6.408114  -0.631947  -2.782434
C  18.711151 -12.536258 -37.217834
C -19.756332  -5.993218   6.320489
C   0.532074  16.646360  37.414330
C   3.262272  -3.980949  -9.467464
44
44
C -31.604797 -14.014575  10.525653
C   9.506045  29.408802  -2.396774
C   4.972413 -15.194085  -9.219031
C  18.302193  -4.079577  -3.613838
C  23.477518  -1.437143  18.061691
C -27.427433  -3.210376 -17.014774
C -11.344674  -6.429111 -19.975260
C   3.060851  20.516602   5.793814
C  -5.503789 -42.546082  33.080647
C  32.805096  32.632004 -15.672131
C  -6.764955 -23.473610  34.541435
C  -7.784471  28.504782 -18.787436
C   3.689643   9.964917  10.361375
C  -3.953426 -10.661438  -4.829973
C -32.712894  10.931581 -54.884251
C  19.920862  -9.272187  35.709305
C  13.650248  -7.333952 -20.533678
C   5.457930  -1.600782  13.013577
C -45.685688 -23.505213  19.796497
C  39.923119  18.999699  -0.792395
C  -6.716460  -5.926370  -9.438974
C   1.011841  17.093678  -5.822271
C  -7.515584 -11.896398 -16.886618
C   9.000907 -19.885523   3.903313
C -16.493214   9.352142   5.067282
C  14.498425  26.885054 -10.223599
C   6.055467 -24.005707  37.058372
C   1.487491   7.012454 -12.283837
C -49.583637  21.662748 -37.070759
C  10.864512  -4.012438   3.975945
C  59.172943   9.316325   2.936570
C -12.386636   5.528386  17.333735
C -26.656992 -31.134274  36.115440
C  14.800716   5.840229 -16.984903
C  -3.944933  -6.378945 -11.871474
C  -1.271336   8.614561  -7.494391
C  17.156429 -20.761330  78.979988
C   3.664004   3.497436 -33.535057
C   0.525503   7.239388 -17.278988
C   0.091060   1.354413 -21.278061
C  -0.443657  -5.431722 -60.030598
C  -7.476197   6.057868   3.031902
C  -2.586202  28.317278  26.618038
C  -6.306550 -14.115094  28.313612
