44
44
C   1.066002 -10.655581 -21.717102
C  -4.821142 -13.819680  41.588451
C  -5.292745   9.248729  -4.261853
C  13.221271   5.871976  -6.726130
C -17.369844  47.820072 -15.876555
C   0.052433 -23.640966   4.618087
C  17.293375 -16.111237  16.721508
C  -5.186088   4.913442 -11.786365
C  54.227333 -35.225101   9.433756
C -29.074232   0.042335  10.155918
C  11.659031   1.838107 -21.352396
C -14.442389   3.348556  -2.952045
C  -8.235037  -7.902114   5.348943
C  -4.981478  -5.145700  -9.604301
C  -5.686946  55.899281  -1.300727
C   4.522098  -8.817229  11.277858
C -14.854107 -20.733393   6.065532
C   2.877440   6.119445  -6.943244
C  14.622121  25.503813 -12.984620
C -17.894722 -14.051188  12.227840
C  -4.980943  -3.868734  -4.037053
C   7.492231  -5.571530   4.149994
C -13.394078   3.856173  -4.736576
C  26.890814 -18.235569 -34.753124
C  -7.222833  16.323805   5.621164
C  -9.238297   0.644773  19.973259
C  -9.945313  -3.236154  39.923988
C  20.556744  -3.716849 -14.379032
C -18.308342  11.733545 -40.323265
C   4.307244   3.445655  29.422562
C  41.680996 -12.753589  11.781068
C -19.326567  13.289212   0.358234
C  36.624481 -25.428545  -0.777716
C  -5.808220 -16.313423   1.263465
C -24.541281  10.871951 -24.311472
C -14.399045  20.852480  24.789288
C  21.707815 -31.928366  -7.347528
C -10.021669   5.847563 -26.661240
C -31.819246  56.192085  21.684961
C   8.875155 -10.142286  -3.478253
C  -3.367754 -20.364037  -5.926952
C  10.235738  18.160696 -14.072853
C   3.530132   0.356194   7.529548
C  -0.213256 -11.229901  14.601912
44
44
C  -0.673528  25.423971  13.422368
C -31.426090 -19.184685 -22.952583
C   0.038237   2.526080  12.273054
C  27.417379  11.868546  -5.523414
C  -5.659940 -21.136156 -38.626213
C  -3.554263   3.584834  11.741668
C  30.306028  27.706053  22.991428
C -32.245670 -27.537994  -0.398102
C  -1.687638  27.110859  15.555588
C  -3.534041  -9.045250  15.918899
C  14.271209 -44.898521  14.518095
C  -9.855123  29.267984 -19.251249
C   0.292849  -0.546858   1.812199
C  -1.397595  -0.123339   4.159447
C   8.315887  -3.695384 -49.854610
C   1.368747   4.140015  23.291555
C  34.938343  -7.075933  16.846973
C  -8.526004   0.329256  -2.728654
C -38.674252  11.296158 -73.177612
C -13.284947  -4.453588  11.462158
C  27.775454   5.764994  36.766739
C   3.465552 -13.668411  13.303316
C  -6.150789   3.290495   0.175459
C   3.822839  -5.108006  -9.926497
C  11.075370  12.972995  10.042804
C   0.591791  -3.310355  -6.834482
C  18.159964 -24.062836  26.117378
C  -3.830986   8.947735  -0.713821
C -54.909760  -0.747024 -37.204929
C   8.784475   3.984095  15.952483
C  19.362963   9.000665  -6.663351
C   8.943086  -6.861658 -18.863972
C -17.301678   6.099432  21.931753
C  12.625303  -0.407504  -7.250954
C   3.483398  -4.762946  -0.107903
C   3.308365  -0.318917  -6.748698
C   8.900733   9.747694  64.550545
C  -4.347499 -13.868883 -31.399292
C   0.714303 -28.011364 -29.380245
C  -6.432022  26.130575  33.030972
C   3.016769  35.619946  -6.639930
C   3.089133 -13.936727   6.930387
C  -4.892082 -12.715835  -1.366318
C  -3.700656   2.068630 -16.922319
44
44
C -14.078623  16.848253   3.242789
C   2.994338 -18.755329   8.269388
C  11.077925  14.229050  -1.455051
C   0.833901 -10.624441  -6.941730
C   3.710024   7.274336  -8.473597
C  20.006435  -4.403864   9.249648
C -47.195110 -30.499075  17.186811
C  17.596939  39.138824 -25.754581
C   1.267811 -44.246601   4.704686
C -17.570744   9.751401  -7.280817
C  17.071114 -10.755080 -12.829954
C   3.529665   4.154262  -4.013209
C  -0.541779  17.525143   4.729786
C -11.594165  -2.268142  11.790643
C  26.458309  -5.651611  27.817007
C -20.429102  10.190071 -11.883743
C -29.832750  10.213646 -20.271639
C  33.800262  -8.338883  12.154415
C   5.481876   6.804535  -7.001377
C -14.679128  -7.460514  -2.814812
C  16.586563  10.379850  21.838112
C  -5.797019  -7.602744  -9.374987
C  -1.723696   7.762835  -9.524622
C  18.950409  11.846145  12.449887
C -31.706285  -7.975482  -0.045884
C   1.537469  15.082397  -2.986185
C  -6.520766 -64.244034 -22.753523
C   3.313581  33.590553  -6.275312
C   9.699927  -4.675106  43.042297
C  -1.246914   4.481892 -20.797262
C  30.147732  -9.701452 -19.017227
C -17.578278  15.711379  21.806818
C  28.049694 -10.924057  -4.133430
C -17.549744   5.994913   0.810964
C  -3.207936   7.318357  26.427505
C  -0.864778   3.534891  -3.518420
C  -0.906500 -26.804882 -15.134267
C   0.001705   4.629323  -0.197341
C -13.175972   3.254649 -15.999000
C  -0.128745   9.823997  14.765405
C  -7.023174  34.165970 -21.775089
C  17.946421   2.493611  -1.083059
C -14.475844 -24.177019  -2.380994
C   8.468475  -7.220743  22.487350
44
44
C   2.548833  -7.886033  13.384229
C  21.130871 -19.838762 -54.528950
C -16.864506  -1.924360  -9.332069
C -11.518269  26.908863  16.923584
C -31.297504  -7.054020  64.625427
C   2.435962   3.865060 -10.828088
C 127.882294 -20.773977 -18.287548
C -42.898495  -9.806917  14.237808
C  -6.989957  38.984871 -69.449516
C   8.480097 -30.629625  11.869536
C -52.292282  27.583361  -9.380137
C  11.969776 -34.485878  32.962135
C  10.137084   3.518985  12.075985
C  18.985710  13.521547  -9.246212
C -71.674744  -5.477434 -15.538633
C  10.206709   2.245644  -6.318468
C  34.762966  13.828156  51.142025
C -13.834250   1.083968 -10.203197
C -18.474384  36.406380 -15.788571
C  -8.493410 -11.354393  -0.790790
C   8.578883   1.166392  -0.793459
C  12.366814 -21.946655  14.688993
C   5.561615 -13.299796 -12.678732
C  17.873816   3.938107  17.795946
C -12.263615   0.552634   1.459608
C  -1.183931   7.982193  -3.152133
C -32.974613  23.600302  23.979223
C  39.077110 -26.810665 -23.873108
C  -6.828387  -0.686562  28.567244
C  19.877968  -8.939790  -7.418036
C -15.263511  34.017002 -14.133922
C  -7.674650   5.932494   6.899550
C  -7.925952 -24.597450 -22.048735
C   0.887219   4.810470  16.567190
C   7.277199  -3.535718  -3.787970
C  -7.005793  15.732078  -4.088517
C -17.564604 -25.429918 -44.580215
C  -1.204303  13.523628  13.004421
C  10.015676   2.514987  27.854826
C   3.189507  -6.855731   2.777241
C  74.105461  44.069786 -14.432471
C -37.279655 -14.266517  13.395284
C -22.535275 -16.391439 -20.652803
C  -3.056931 -14.135818  16.863195
44
44
C   5.106967  14.565540 -15.281993
C   6.675642 -10.068433 -43.223652
C -14.832622   8.145181   1.888725
C   4.867958  16.827751  29.468483
C  -1.876655 -42.772434  32.116280
C  -4.544179   6.433645   1.643738
C   0.643091 -16.430643   8.153112
C   3.289965   0.662735   2.625698
C  22.345881  -8.395784   4.766098
C   6.394084   8.127554  -6.325210
C   0.831130  12.360309  -9.265260
C   7.157185 -19.436298  -5.781472
C -40.219891  14.529040  18.282545
C  15.059892  -0.118103  -7.381007
C   2.101998  19.098179 -13.389150
C  10.048763  -5.576413  30.768227
C -48.860725 -16.286209 -72.790985
C  43.815792 -15.389934  16.979856
C -19.691669  53.800316  65.768730
C  11.489549   5.287394 -12.612412
C -18.028090 -28.954693 -14.384558
C   0.597329  -0.501470  -7.731605
C   6.345736  -5.418706  -1.182995
C -19.464434  -0.426903  32.600300
C  -4.578411   0.904316 -10.850446
C   6.380728   4.333824 -26.163078
C  42.166306  -8.616706   9.468402
C -14.202885  13.548444  -0.523162
C   0.041380 -12.756404  -1.752036
C  -9.622898   1.248112 -15.643271
C  25.322874  -8.650057  12.654901
C  -5.317057   1.142107   5.934603
C -20.454807  18.813873 -24.667391
C  -5.758386  -7.526839   7.208395
C  11.795955  -6.354487  21.041050
C   4.557110  -4.312612   3.022249
C  -4.483676  16.032125 -68.960457
C   2.727479   9.122704  60.554382
C -15.796345 -16.835417 -12.234403
C   7.135786   7.871000  18.893484
C -14.755284  16.603107  -0.001940
C  -1.080928  -1.937272   2.936215
C  15.661259 -21.330177 -22.783512
C   0.586034   9.762759   7.829436
44
44
C  13.679506   3.162086  -6.974682
C  -5.606705   0.591114  19.755119
C   4.395295 -15.880708 -13.383264
C  -2.282666   7.641461   5.584741
C -16.055313   9.149174 -17.384989
C   7.358899  -1.077489   7.153522
C  -0.807937   2.941952  10.112654
C -20.352896 -18.654009  11.478002
C  19.350416 -10.055692 -41.066959
C -10.628010   4.517572  -5.364459
C   5.727754  -1.204421  -6.523399
C  -8.615116 -18.535604  17.736082
C   5.434207   1.303170   7.815959
C  14.204485  22.696253  -3.451933
C  15.912387  15.143247  16.975834
C -15.068648  -0.176368   7.370031
C   8.339767   2.279690  10.238064
C -16.831556  -5.477756 -20.677414
C  11.265744 -17.913355 -20.810904
C -12.736089   7.372471  -7.908457
C   8.152705  25.373413  14.734734
C  -5.218828  -9.399980  17.344313
C   6.197214  -1.322972   9.121475
C  -5.785956 -20.545542   8.610073
C   9.720549   6.200011   5.917141
C   3.614241  13.517687  14.093830
C -62.855957  10.346433 -36.956543
C  18.249306  -6.934590 -16.468563
C  36.305183 -12.636772  24.279074
C  -8.178935   3.245232  -3.004132
C  -0.009694  19.736677  -2.648291
C  -3.313286   8.200253   4.778118
C -50.750233 -17.231482 -16.535490
C  34.011608   6.219807  -5.869190
C  16.901403   1.357848  28.750162
C  -1.603415   1.691956  -6.731949
C   4.535582   8.473014 -19.226469
C   4.941702 -18.331219   1.868098
C -29.944580  -1.493426  30.918470
C   9.662525 -11.913222 -14.673516
C  22.515697   7.952176  -5.480555
C  13.447881  -2.435168  -4.109404
C  -5.755177   4.215060  14.065601
C -12.062600  -3.456986 -11.277229
44
44
C -17.933033  -7.222299  -0.078005
C   1.697545  37.223667  17.159040
C   5.649335 -14.154476 -15.973531
C  -1.018167   3.293645  -8.270433
C -54.986267 -12.585988 -18.011505
C  26.623476  15.608057  -0.411503
C  63.244358 -13.065511  25.659271
C -20.775888 -21.607370   6.271053
C  40.015678  18.363127 -29.048765
C -22.682337 -17.419281  -0.042655
C  -3.850100  -9.558782  46.744381
C  -1.597924  11.245696 -20.232100
C   3.830017   6.508125  -9.880997
C  -5.261474  -4.326287  -3.418456
C   2.275755   0.692566  -0.450026
C -24.373825   0.932453 -17.044207
C   7.024888   0.464396  -2.273379
C   2.816590   2.965859   4.670237
C -35.049843   0.436420 -21.494524
C  -3.012902  -3.747774   8.880992
C  13.455747  17.459778  44.223316
C  21.156565 -14.354381  -5.572511
C  22.667061  16.394085 -11.660925
C -29.566071 -17.181213   4.085158
C  -5.132152  -1.703860   2.018174
C  -5.426863  -4.950797  -1.116252
C  37.150444  16.132359  27.098600
C   1.179287 -11.887571 -14.126904
C   3.444701  21.563774   1.299214
C  -1.054021  -2.648459  -1.997327
C  33.493793 -10.983823 -54.340702
C -23.406792  10.336213  48.228497
C -64.682884   0.137268 -59.594227
C -12.010699 -17.336960  -0.620605
C  31.328903   4.207303  54.070759
C   8.425940   1.521886   6.808893
C -12.365413  24.915897 -48.535309
C   0.342760  -3.869134  26.796434
C  10.748510 -22.290133  51.371376
C   6.002709 -12.766851 -23.737459
C   8.866526 -22.867901 -11.165903
C   7.377883   3.060399   0.254583
C  -5.969896  15.234882  -5.679765
C  -8.542403  17.841467   8.342029
44
44
C  10.137282   2.369397  -1.158057
C   1.311791 -24.927280   2.645059
C  -4.929707  -2.415178   0.777131
C   1.495070   5.829508   8.548990
C -13.808408   8.469327  -1.600096
C  15.023560  -0.167642  11.057701
C -23.518339  -0.427150 -36.985008
C  23.065599  13.552709  10.645087
C -41.689308 -40.128937  33.726711
C  26.390942  27.492464 -13.303235
C  -1.045559   1.397065  10.333563
C -12.832114 -17.332283   3.555871
C   9.468998 -13.656932  -5.758265
C  12.583249  29.344461 -11.683230
C -15.408329  15.732930 -11.821451
C  -6.779818   1.071970   1.733510
C -23.368032  -3.682044   5.565314
C  12.975099   0.815747   7.437263
C  63.529305  -9.197232  12.452016
C  -6.987961   1.853391  -9.559769
C -20.723442   5.684956 -20.184528
C  -9.300913   2.163354   4.313979
C   0.642563   7.834077 -22.101509
C   3.739336  30.572346  24.772724
C   5.964259 -10.547073 -14.663153
C -12.577921 -13.627179  -9.284701
C  -7.754772 -19.263927  34.246517
C  28.393543  -6.197843  -5.874442
C  27.545177 -15.706967 -27.916382
C -13.964931   9.981902  23.068085
C -10.347507 -19.751682  23.452494
C  14.261978  13.047733 -11.945636
C -37.147549 -11.813096  -0.982646
C   9.077238  21.275532  15.327929
C  17.761782   0.298052  -7.397376
C   4.665953  -0.201284 -10.901899
C -55.927505  13.882764  29.063890
C  20.916929 -11.851320 -32.092709
C  -3.119743  26.799370   0.257735
C  -5.556203   1.232729  -1.621286
C  23.786108  28.446566  10.069785
C  -7.340555  -6.818619  10.679843
C  -2.585137 -45.728767 -29.936502
C   2.872298   4.085855   3.068332
44
44
C  -6.349207  20.182587 -11.183959
C  24.481592 -15.618496  39.888004
C  -2.000671  12.882436 -12.361598
C -18.220322  -1.480383 -18.068216
C   2.527024  -9.219580  13.079503
C  -3.172914   2.760777  -7.254463
C  -7.367273  14.299618 -25.488729
C  -6.127300 -16.172127   0.199554
C  18.625217 -67.439827 -21.274549
C -10.226280   9.537432   2.917067
C  32.103291  51.400070  52.565945
C -11.273619  10.112888 -26.905893
C   4.721895  -4.684066   0.178699
C -15.130049 -22.810871   6.826846
C  99.054298 -15.752579 -20.619213
C -72.867554  11.748751  -2.694781
C -38.247990  14.814779  52.730545
C -10.559043  -2.384200 -20.194870
C  25.450499   7.673199   6.897332
C -10.665034 -13.786821  -2.887462
C   7.886613   1.843993   9.693610
C  -5.173635  10.981532 -13.657113
C  -4.444371   3.680356   3.669419
C   1.719286  -3.742567 -10.789285
C  -8.327385  -1.314130 -14.679901
C  -7.974895   4.899593  -9.606501
C 104.509422 -92.095917 -18.049509
C -44.137753  60.951481  58.329769
C -44.919132  50.586357  19.060547
C   2.361665 -18.313934 -15.036227
C  -2.984352 -45.473431   8.515607
C   7.347729   2.815094 -22.064035
C  17.284042  -5.644094  -9.364966
C   1.542244   6.539226   6.022039
C  -8.369089   3.417886  -7.963564
C  -0.303333  13.676512   6.941622
C -14.072288  24.649391  20.481834
C   7.961557  -6.607558 -52.088398
C -14.218660   5.919712  38.489895
C   6.648849  -0.223264  -1.798493
C  19.357786 -13.326200 -35.758434
C -18.343090  -5.674237   4.562656
C  -0.336039  15.642056  37.602875
C   4.136632  -2.384969 -10.926774
44
44
C -31.941416 -15.012787   9.652096
C   9.606599  30.724712   2.253547
C   7.166739 -16.689157 -10.730604
C  17.622116  -3.645080  -3.582262
C  25.463612   3.434576  18.503996
C -26.905836  -2.105313 -13.372786
C -12.589354  -9.134734 -21.200813
C   2.577046  20.574116   5.599386
C  -6.552244 -41.632473  31.108492
C  32.066490  32.390892 -15.565580
C  -6.846346 -24.757069  35.913704
C  -8.493712  29.721664 -20.176888
C   4.020315   9.735351   9.596363
C  -3.557851 -10.159698  -4.502679
C -32.516121  10.944693 -57.430141
C  22.099657 -11.614245  37.595345
C  11.665100  -6.976707 -21.258265
C   6.133482  -2.268557  13.241514
C -44.548264 -21.738010  19.679844
C  38.155094  17.359711  -0.399856
C  -4.978889  -5.670953  -7.982331
C   0.301827  18.315323  -6.408563
C  -6.892075 -12.186618 -17.731636
C   9.927627 -19.171194   6.181936
C -16.614737   9.419832   5.078380
C  14.036521  26.098669 -10.402495
C   5.529007 -24.855761  34.269878
C   0.841191   6.080949 -11.058738
C -49.436649  20.459970 -37.718426
C  11.277990  -4.116860   3.929510
C  57.763252   8.769717   4.598809
C -11.474936   5.907327  16.238216
C -24.787283 -30.133066  34.324764
C  14.392619   5.255319 -16.833830
C  -2.977225  -6.307818  -9.722917
C  -1.761542   8.321406  -6.916191
C  16.017063 -21.267143  78.899673
C   4.024840   2.444740 -33.388866
C   0.645266   6.996351 -17.626705
C   0.414273   1.401121 -20.871992
C   1.515926  -5.031838 -61.271416
C  -6.906834   5.743134   3.088801
C  -3.975207  27.666725  28.650448
C  -8.159746 -13.692159  26.607559
