44
44
C  34.611355  29.306915  32.962006
C  34.388237  30.205368  33.475365
C  35.234592  30.350025  34.157017
C  33.472561  30.006927  34.072697
C  34.171150  31.377777  32.583542
C  35.046505  32.221569  32.354156
C  32.898045  31.618601  32.214218
C  32.221771  30.980272  32.630089
C  32.437984  32.745010  31.379221
C  33.370377  33.283043  31.036448
C  31.828051  32.115360  30.178419
C  31.668272  32.901737  29.455408
C  32.584614  31.489059  29.692598
C  30.931124  31.593918  30.497087
C  31.511280  33.613514  32.168495
C  30.463320  34.042786  31.657347
C  31.960453  34.050312  33.363556
C  32.765862  33.579720  33.758995
C  31.125355  34.817009  34.283875
C  30.244383  34.266655  34.473476
C  31.677183  35.079384  35.199032
C  30.772409  35.739914  33.791836
C  31.369606  29.448217  35.936474
C  30.634903  30.273409  35.898575
C  31.196169  31.103313  36.279007
C  29.759350  29.995531  36.434097
C  30.178928  30.511459  34.455074
C  30.667946  29.903637  33.533794
C  29.118954  31.287962  34.324238
C  28.722668  31.814573  35.056618
C  28.379269  31.525974  33.071033
C  29.150867  31.436737  32.274452
C  27.368338  30.402878  32.916843
C  26.719986  30.464869  33.785603
C  26.837915  30.534163  32.033943
C  27.905521  29.432116  32.683113
C  27.666231  32.888412  33.116177
C  27.572588  33.488758  34.208714
C  27.134617  33.177071  31.916063
C  27.283943  32.596973  31.119379
C  26.051207  34.184563  31.804527
C  25.164841  33.699181  32.295712
C  26.302990  35.106838  32.317333
C  25.865431  34.474899  30.743719
44
44
C  34.512676  29.796194  32.703518
C  34.409557  30.679890  33.403580
C  35.379372  30.821663  33.864182
C  33.545841  30.381041  34.073124
C  34.018467  31.933638  32.592190
C  34.794022  32.861675  32.400631
C  32.864422  31.822563  31.887386
C  32.344200  31.114275  32.295071
C  32.164001  32.893303  31.143328
C  32.924339  33.630814  30.823067
C  31.619650  32.439972  29.788368
C  31.481190  33.272423  29.180525
C  32.362179  31.819965  29.283445
C  30.697386  31.872038  29.872366
C  31.115234  33.699154  32.012482
C  30.080965  34.053642  31.432838
C  31.443670  34.016403  33.264465
C  32.377144  33.723202  33.551685
C  30.726683  34.823151  34.247547
C  29.853886  34.274490  34.500328
C  31.277880  35.078587  35.073109
C  30.409662  35.756187  33.707375
C  31.093372  29.381987  35.901485
C  30.438139  30.256594  36.012711
C  30.980217  31.029572  36.490444
C  29.573063  30.033613  36.643593
C  30.054987  30.800438  34.640831
C  30.787546  30.596493  33.672054
C  28.888367  31.387373  34.632046
C  28.311504  31.401573  35.445782
C  28.088278  31.597115  33.398632
C  28.818754  31.747705  32.637455
C  27.214804  30.376087  33.037693
C  26.286625  30.405819  33.651150
C  26.914860  30.432741  31.990080
C  27.723803  29.441874  33.280499
C  27.319754  32.924126  33.351479
C  27.304594  33.613449  34.405518
C  26.695721  33.283295  32.241268
C  26.790588  32.674026  31.384306
C  25.941774  34.515919  32.191673
C  25.007566  34.556625  32.752293
C  26.569292  35.372097  32.520531
C  25.679688  34.712528  31.177929
44
44
C  34.364456  30.073376  33.009907
C  34.451042  31.099783  33.437332
C  35.478840  31.098522  33.732372
C  33.859715  31.298748  34.349983
C  34.105782  32.167465  32.422497
C  34.892681  33.006077  32.030529
C  32.854687  32.209301  32.044529
C  32.247715  31.426542  32.445107
C  32.294704  33.241585  31.097345
C  33.164150  33.843853  30.803709
C  31.738974  32.445713  29.889404
C  31.500372  33.108082  29.068762
C  32.416737  31.624804  29.556923
C  30.827682  31.925400  30.118250
C  31.181011  34.088730  31.755598
C  30.134659  34.319614  31.195333
C  31.385372  34.362549  33.048264
C  32.240738  34.082024  33.381409
C  30.508202  35.018734  34.010681
C  29.853519  34.328148  34.487072
C  31.121412  35.324177  34.796272
C  30.043680  35.958340  33.690445
C  31.104540  29.446911  35.833305
C  30.821754  30.511137  35.876305
C  31.789448  31.056248  36.081047
C  30.096792  30.489140  36.690353
C  30.217836  30.949162  34.546940
C  30.638655  30.281900  33.591175
C  29.094707  31.668364  34.438316
C  28.699024  31.943045  35.342037
C  28.324022  31.969456  33.217720
C  29.067968  31.993549  32.368614
C  27.405346  30.798719  32.783360
C  26.574188  30.693542  33.454746
C  27.176165  30.844795  31.681307
C  27.965782  29.865717  32.933159
C  27.590794  33.314491  33.390232
C  27.421648  33.809753  34.504608
C  27.072483  33.771614  32.262428
C  27.233555  33.221977  31.407043
C  26.092827  34.854580  32.201481
C  25.158848  34.624725  32.763874
C  26.568409  35.819172  32.553318
C  25.778131  35.035217  31.138519
44
44
C  33.692894  30.261301  33.461414
C  34.523048  30.964537  33.348312
C  35.483242  30.442677  33.170494
C  34.803379  31.488441  34.217525
C  34.153404  31.812023  32.091244
C  35.006813  32.422741  31.467342
C  32.806923  31.916950  31.947989
C  32.289944  31.291174  32.481285
C  32.323982  32.864441  31.043488
C  33.033142  33.666336  30.690161
C  31.830702  32.172050  29.722599
C  31.487799  32.983753  28.964136
C  32.533318  31.529251  29.187176
C  30.929514  31.539331  29.982939
C  31.398594  33.801800  31.733185
C  30.312763  34.121048  31.241346
C  31.632174  34.082939  32.983551
C  32.522018  33.755318  33.388168
C  30.790184  34.860252  33.880623
C  30.002089  34.266014  34.288296
C  31.329370  35.261978  34.728264
C  30.316833  35.732765  33.324398
C  31.233206  29.659355  35.863220
C  30.501591  30.436893  35.774315
C  31.034559  31.297340  36.196163
C  29.657185  30.105015  36.379944
C  30.101038  30.754143  34.359211
C  30.694407  30.409662  33.389919
C  29.019733  31.507498  34.243076
C  28.507523  31.869804  35.063137
C  28.324081  31.746571  33.025669
C  29.023218  31.801607  32.175209
C  27.379538  30.561752  32.865334
C  26.555744  30.557827  33.559647
C  26.856703  30.643679  31.917597
C  27.913118  29.578938  32.923477
C  27.519726  33.089321  33.236408
C  27.489819  33.585442  34.352974
C  26.714495  33.556091  32.220695
C  26.782093  33.187168  31.282692
C  25.741655  34.645447  32.457775
C  24.869698  34.304977  32.886787
C  26.262169  35.351086  33.182468
C  25.575354  35.224762  31.513424
44
44
C  33.741093  29.920895  33.500576
C  34.483349  30.733467  33.349136
C  35.486984  30.281187  33.177757
C  34.510098  31.282118  34.222313
C  34.203812  31.774233  32.192707
C  35.137127  32.333092  31.641876
C  32.915325  31.955233  31.895191
C  32.220913  31.325926  32.281422
C  32.389542  32.917931  30.964695
C  33.208626  33.603615  30.804264
C  32.115620  32.223454  29.638987
C  31.756756  33.082016  29.035461
C  33.057899  31.740585  29.180382
C  31.252686  31.548288  29.815870
C  31.294544  33.767124  31.598814
C  30.445293  34.263344  30.823730
C  31.457375  34.071838  32.930874
C  32.190620  33.727673  33.444580
C  30.569189  34.927906  33.567772
C  30.057083  34.414753  34.430744
C  31.161402  35.820026  33.965103
C  29.762352  35.305016  32.935551
C  31.266777  29.439184  35.602970
C  30.696184  30.343658  35.718624
C  31.367876  31.150515  36.025227
C  29.989010  30.151054  36.560402
C  29.999645  30.595579  34.386574
C  30.537537  30.079504  33.406021
C  28.972015  31.435442  34.380497
C  28.733526  31.866758  35.278702
C  28.281317  31.778454  33.123276
C  29.030037  32.031166  32.354443
C  27.486614  30.572420  32.594841
C  26.702635  30.357609  33.299435
C  26.981915  30.838043  31.620565
C  28.110853  29.703114  32.432629
C  27.420364  33.006535  33.310429
C  27.325010  33.634300  34.311272
C  26.876915  33.514618  32.194279
C  26.973124  32.992989  31.312965
C  25.804218  34.512753  32.193935
C  24.855162  33.978130  32.168201
C  25.742363  35.220825  33.088501
C  25.852598  35.023914  31.228895
44
44
C  33.634590  29.883915  33.014462
C  34.535870  30.526590  32.892532
C  35.349178  30.060144  32.379635
C  34.943012  30.719170  33.877075
C  34.229565  31.813841  32.167145
C  35.096004  32.619102  31.866055
C  32.969193  31.970285  31.779743
C  32.370945  31.234371  32.002998
C  32.356510  33.037075  31.018745
C  33.184204  33.733059  30.883835
C  31.906670  32.477196  29.628551
C  31.798313  33.319359  28.879427
C  32.658016  31.825512  29.174932
C  30.993822  31.827141  29.745291
C  31.171507  33.811268  31.591196
C  30.426310  34.394032  30.810205
C  31.039253  33.871868  32.935043
C  31.791378  33.505806  33.538563
C  29.974163  34.634689  33.580559
C  29.722221  34.090221  34.497936
C  30.404884  35.549644  33.838287
C  29.167082  34.925549  32.856037
C  30.722994  29.582819  35.719265
C  30.967752  30.623484  35.587845
C  32.029236  30.771622  35.504395
C  30.458151  31.203718  36.316536
C  30.365557  30.950361  34.314610
C  30.992964  30.752438  33.297916
C  29.061211  31.340961  34.270836
C  28.644184  31.463678  35.179401
C  28.206720  31.524080  33.099987
C  28.848965  31.569254  32.209995
C  27.315052  30.298254  32.902622
C  26.312544  30.347038  33.431339
C  27.012041  30.225313  31.811258
C  27.840145  29.398472  33.243332
C  27.364040  32.832531  33.245377
C  27.129339  33.365604  34.335766
C  26.893490  33.397869  32.110081
C  27.093592  32.999943  31.232094
C  25.840614  34.435459  32.156414
C  24.806429  34.086891  32.361015
C  26.152922  35.137875  32.911812
C  25.965050  35.054539  31.275822
44
44
C  33.654732  30.063143  33.390453
C  34.509090  30.582508  33.039379
C  35.114307  29.983004  32.419212
C  35.091248  30.841053  33.929871
C  34.149746  31.877958  32.296944
C  34.993481  32.701317  32.105915
C  32.873714  32.053955  31.800760
C  32.176418  31.430723  32.130234
C  32.479240  33.065140  30.840857
C  33.439400  33.604675  30.539354
C  31.979849  32.303207  29.580502
C  31.248388  32.854908  29.056082
C  32.814705  31.893959  29.027817
C  31.468662  31.450550  29.976492
C  31.496496  34.085773  31.440937
C  30.837151  34.853668  30.764051
C  31.394382  34.082649  32.760773
C  31.959930  33.387920  33.225082
C  30.499512  34.812149  33.594494
C  29.832289  34.084820  34.021721
C  31.090925  35.266396  34.330227
C  29.853371  35.561852  33.088512
C  30.320059  30.004148  36.175613
C  30.923685  30.737804  35.566814
C  31.944962  30.389496  35.383575
C  30.993099  31.726564  36.057617
C  30.182137  30.866386  34.237358
C  30.815840  30.677561  33.231606
C  28.942728  31.287966  34.270618
C  28.549438  31.581722  35.159477
C  28.169825  31.587187  33.078236
C  28.841879  31.812313  32.151852
C  27.562880  30.256149  32.760723
C  26.926435  30.078253  33.628990
C  26.935936  30.315907  31.760460
C  28.267811  29.434687  32.609661
C  27.138256  32.729961  33.273525
C  26.960314  33.266014  34.341362
C  26.508450  33.251236  32.169823
C  26.804249  32.936768  31.292643
C  25.494673  34.286125  32.203342
C  24.510208  33.867565  32.480095
C  25.852324  34.996365  32.942371
C  25.494705  34.607922  31.153824
44
44
C  33.946987  30.370655  33.251682
C  34.797668  30.976042  32.955528
C  35.465244  30.392937  32.350468
C  35.336094  31.344101  33.817516
C  34.314861  32.105080  32.112507
C  34.875687  33.180569  32.130596
C  33.184303  31.924213  31.438774
C  32.593376  31.065413  31.458607
C  32.707520  33.009598  30.549616
C  33.537663  33.598167  30.265272
C  31.993486  32.448761  29.326214
C  31.596624  33.294388  28.759605
C  32.742558  32.095139  28.666883
C  31.299709  31.602913  29.634071
C  31.753332  33.979973  31.267242
C  31.342964  34.959427  30.682617
C  31.371246  33.761856  32.520035
C  31.757801  32.959679  32.936363
C  30.363285  34.483444  33.338959
C  29.630512  33.821625  33.775951
C  30.994648  34.878269  34.180359
C  29.894453  35.245647  32.748444
C  30.360888  29.994543  36.298691
C  31.013945  30.611528  35.638271
C  31.928566  30.068699  35.526764
C  31.338614  31.517454  36.209393
C  30.368582  31.053490  34.308079
C  30.922853  30.905901  33.227718
C  29.089211  31.368258  34.349541
C  28.674835  31.613775  35.201359
C  28.304810  31.426867  33.132183
C  28.885071  31.679379  32.277348
C  27.804823  29.984201  32.850346
C  27.029182  29.570215  33.509556
C  27.201342  29.942951  31.928471
C  28.601688  29.255209  32.921513
C  27.221355  32.459873  33.318027
C  26.908335  32.903168  34.461704
C  26.458891  32.706837  32.251091
C  26.720888  32.265347  31.378778
C  25.377995  33.755463  32.233379
C  24.400743  33.310005  32.248432
C  25.492128  34.603104  33.024311
C  25.379908  34.222267  31.248161
44
44
C  34.201824  30.481421  33.167686
C  34.984005  31.110226  32.709530
C  35.470123  30.442703  31.999926
C  35.679646  31.343002  33.556351
C  34.428593  32.388744  32.139698
C  34.858597  33.481720  32.482101
C  33.423416  32.197411  31.327478
C  33.132542  31.252480  31.222721
C  32.848816  33.217373  30.387400
C  33.711842  33.562340  29.787598
C  31.858479  32.388462  29.420897
C  31.393637  33.192825  28.902605
C  32.274906  31.643625  28.752985
C  31.075806  31.930403  29.949337
C  32.134422  34.341480  31.188902
C  32.199474  35.486885  30.811172
C  31.396360  33.826916  32.152645
C  31.510992  32.870815  32.399837
C  30.483139  34.639854  32.943390
C  29.897871  33.985733  33.522991
C  31.089996  35.223351  33.548065
C  29.840504  35.307411  32.356602
C  30.701120  30.683176  36.329056
C  31.408884  30.979366  35.559643
C  32.180359  30.199326  35.526569
C  31.931631  31.871561  35.909866
C  30.633045  31.186827  34.195423
C  31.264292  31.018145  33.066948
C  29.350561  31.256153  34.334499
C  28.991482  31.486637  35.284966
C  28.394794  31.432392  33.254383
C  28.941034  31.851488  32.455978
C  27.874556  30.023445  32.817390
C  27.177534  29.555878  33.509403
C  27.413191  30.119642  31.847889
C  28.690550  29.306030  32.619236
C  27.266991  32.363903  33.583298
C  27.031853  32.658245  34.801109
C  26.620323  32.861160  32.491947
C  26.790440  32.466129  31.586058
C  25.465025  33.774258  32.637772
C  24.587355  33.180393  32.617218
C  25.557276  34.372906  33.476345
C  25.418949  34.489738  31.826231
44
44
C  34.409264  30.700859  33.222305
C  35.148018  31.204542  32.709190
C  35.634483  30.605534  32.005608
C  35.776466  31.553356  33.508736
C  34.638794  32.419289  31.958628
C  35.321190  33.423634  32.157764
C  33.629337  32.280544  31.138357
C  33.318920  31.312305  30.977427
C  33.054207  33.363323  30.281601
C  33.892311  33.840607  29.826132
C  32.155682  32.624725  29.256935
C  31.696459  33.288437  28.588234
C  32.595581  31.777416  28.732538
C  31.294836  32.284832  29.864981
C  32.312260  34.438744  31.086426
C  32.463001  35.620266  30.744020
C  31.607107  34.038082  32.132236
C  31.769474  33.070389  32.421028
C  30.629416  34.828461  32.814014
C  29.974993  34.166836  33.411301
C  31.181349  35.621471  33.360367
C  29.955873  35.254662  32.082905
C  30.643431  30.476086  36.311924
C  31.281754  30.787281  35.478725
C  32.081310  30.041487  35.242580
C  31.791700  31.580175  35.926456
C  30.550598  31.197916  34.180141
C  31.223957  31.345928  33.167622
C  29.234146  31.156939  34.214413
C  28.728827  31.104080  35.085423
C  28.306843  31.367329  33.041225
C  28.932665  31.771063  32.204227
C  27.803381  30.051828  32.511742
C  27.050501  29.657125  33.241985
C  27.336216  30.243803  31.565350
C  28.598278  29.290070  32.463211
C  27.186510  32.348412  33.357174
C  26.971636  32.625580  34.573997
C  26.500189  32.790524  32.353615
C  26.689806  32.326065  31.497297
C  25.647491  33.938248  32.405460
C  24.652201  33.574123  32.216015
C  25.763561  34.340096  33.363571
C  25.931618  34.650723  31.562353
