44
44
C   0.887153 -10.652405 -21.800493
C  -4.812868 -13.991424  41.725643
C  -5.244375   9.128622  -4.712348
C  12.897132   5.470305  -7.065375
C -16.848402  47.907307 -15.844989
C   0.272259 -22.916880   4.953730
C  17.189413 -16.380806  16.661125
C  -5.161142   4.673702 -11.677716
C  54.191929 -35.267910   9.473711
C -28.868055   0.301186  10.319886
C  11.575169   1.721023 -21.511147
C -14.444232   3.630300  -2.818152
C  -8.217716  -7.932860   5.292406
C  -4.996783  -5.341006  -9.485465
C  -5.776637  56.594952  -1.605999
C   4.409633 -11.390027  12.565260
C -14.824877 -20.765421   6.481903
C   2.953018   6.089942  -7.064779
C  14.517904  25.507368 -12.850245
C -17.778814 -13.983034  12.164452
C  -5.057900  -3.951213  -4.006277
C   7.312259  -5.430738   3.514653
C -13.367602   3.688062  -5.213387
C  26.707693 -18.266148 -34.678349
C  -7.193699  16.367636   5.547989
C  -9.089408   0.611697  19.752544
C  -9.367327  -3.500898  39.724236
C  19.891144  -4.173787 -14.661591
C -18.581923  11.677150 -40.373741
C   4.657410   3.237974  29.355156
C  41.637615 -12.776561  11.850228
C -19.240049  13.258272   0.378290
C  36.444088 -25.313160  -0.719135
C  -5.739234 -16.286312   1.158161
C -24.622015  10.740718 -24.399126
C -14.343970  20.905466  24.692335
C  22.202862 -31.972889  -7.811211
C -10.726498   5.538471 -26.491814
C -32.152058  56.028515  21.938684
C   9.018811 -10.083475  -3.471174
C  -3.490215 -20.382059  -5.782176
C  10.455573  18.343636 -14.081156
C   3.543267   0.411448   7.491241
C  -0.174625 -11.136375  14.599128
44
44
C  -0.213026  24.234161  12.201580
C -32.083649 -17.937477 -22.127775
C   0.890800   2.324750  12.452128
C  27.214033  11.926261  -5.455504
C  -5.468694 -20.084259 -38.663601
C  -3.814735   2.510811  12.977509
C  31.342295  28.572781  21.874491
C -32.966934 -28.362669   0.595103
C  -1.482103  27.345644  15.598199
C  -3.481786  -9.164762  15.606711
C  13.742936 -45.312054  14.937076
C -11.334133  29.942114 -19.890970
C   0.154210  -0.536694   1.718975
C  -1.270211   0.509935   3.857265
C   8.119738  -3.670961 -49.596539
C   0.888382   3.944196  23.074497
C  35.767822  -7.149022  16.941633
C  -8.702220   0.050176  -2.914765
C -39.465656  11.174150 -73.237770
C -13.231509  -4.416831  11.393951
C  28.226501   5.790970  37.187183
C   3.583825 -13.579051  13.056681
C  -6.109951   3.740743  -0.299158
C   3.624912  -5.944204  -9.374584
C  11.087409  13.007867  10.240493
C   0.733713  -3.026754  -6.667837
C  17.659071 -26.265518  25.449495
C  -3.320455   8.272358  -0.885857
C -55.507584   0.582574 -36.330997
C   9.196273   3.821982  15.717604
C  19.521263   9.040502  -7.491749
C   8.612352  -6.656922 -18.519716
C -17.640354   5.738832  22.465084
C  12.786300  -0.191418  -7.058932
C   3.344150  -4.381788  -0.899594
C   3.554643  -0.176429  -6.330567
C   8.348707   8.343594  63.869087
C  -4.104581 -13.115714 -31.185938
C   1.005672 -28.124832 -28.955820
C  -6.507972  26.045397  33.610806
C   2.821797  35.950279  -6.735115
C   2.786696 -14.193119   7.083842
C  -4.614809 -12.406346  -1.927724
C  -3.129733   2.446317 -16.651423
44
44
C -14.115793  16.045155   3.585410
C   2.171612 -17.024242   8.605618
C  11.914927  14.380367  -1.766847
C   1.337044 -10.979922  -8.217324
C   1.687167   5.161769  -6.983153
C  20.695662  -3.700510   8.547492
C -47.397240 -29.452339  16.846395
C  17.019186  39.356152 -25.879606
C   3.466032 -44.937477   6.090718
C -18.716539   9.897571  -7.197068
C  17.076134 -11.797899 -14.151875
C   3.151928   5.264602  -3.420731
C  -0.465983  17.603725   5.515378
C -11.436022  -2.142352  11.956648
C  26.358047  -4.456139  27.075703
C -20.791702   8.374693 -10.750215
C -30.810276   9.895182 -20.480410
C  33.395134  -7.587896  11.630520
C   5.173019   5.598917  -5.248053
C -14.225024  -7.410647  -3.529939
C  16.902781  10.192768  22.575825
C  -5.314723  -6.814037 -11.054298
C  -2.449398   8.245735  -9.617151
C  20.553278  10.045105  12.542988
C -31.654083  -6.792899  -1.323991
C  -0.305601  15.193022  -1.067149
C  -2.539258 -63.595798 -24.124044
C   3.649731  32.679794  -5.949529
C   5.976264  -5.619565  44.628761
C  -1.251166   5.412692 -20.449747
C  30.437098  -8.110848 -18.946913
C -17.751678  15.914405  20.933216
C  27.037590 -10.547795  -5.286211
C -17.430868   5.950582   1.106247
C  -3.204323   6.756547  27.086840
C  -0.109131   2.893885  -3.518424
C   0.976502 -26.718801 -15.271894
C  -0.094731   4.136534   0.292917
C -13.896081   2.985360 -16.080822
C  -0.351567  10.165248  15.348474
C  -6.081480  35.189827 -20.542891
C  17.750067   2.468601  -0.535521
C -14.328004 -24.675535  -3.103604
C   7.790242  -7.877377  21.379070
44
44
C   2.922886  -6.938650  13.250830
C  20.588110 -19.408121 -55.147102
C -16.457672  -2.019066  -9.125097
C -11.203322  26.128042  17.637754
C -30.284386  -6.335228  67.627579
C   4.310282   3.932973 -12.170766
C 126.809349 -23.746090 -22.006905
C -41.138268  -8.852543  15.264425
C  -9.903198  38.170948 -70.245010
C   9.595635 -28.511858  11.294002
C -51.858727  27.577732  -8.393766
C  12.424021 -34.229500  33.611687
C   9.561480   3.345412  11.561110
C  19.094761  13.503885  -9.630703
C -70.036430  -5.816606 -17.549393
C  10.107517   0.727925  -5.742392
C  35.710217  14.673292  53.792965
C -15.598061   1.226482 -11.248528
C -18.406702  37.189991 -16.009802
C  -9.009468 -10.856092  -1.170515
C   9.245113   0.885880  -0.361465
C  11.033797 -22.505598  15.553036
C   6.813118 -13.705648 -13.042879
C  18.828171   5.175076  16.999529
C -12.373955   0.684115   1.371965
C  -2.704776   7.673663  -2.519637
C -39.097736  23.172165  25.930374
C  42.248028 -26.351778 -24.882965
C  -5.428315  -3.490113  26.539970
C  19.053064  -6.496772  -5.577098
C -16.710985  32.155525 -11.545141
C  -6.674449   5.559124   6.139022
C  -7.044193 -24.023245 -20.721174
C   0.668425   4.822847  16.310846
C   6.772568  -2.694601  -5.331553
C  -6.335393  16.308994  -3.850596
C -18.172102 -23.553347 -44.762577
C  -0.899756  12.638854  12.896975
C  10.186825   1.135523  27.561283
C   2.628390  -6.208662   3.813070
C  73.857475  44.180744 -13.973923
C -37.416378 -15.289812  12.689617
C -21.287138 -16.116076 -20.501610
C  -3.609606 -13.622191  16.569750
44
44
C   4.946388  14.773468 -15.482127
C   3.777485 -10.592575 -44.603577
C -13.766285   7.383751   1.639224
C   5.778555  18.319128  31.637064
C   5.077662 -43.652435  30.851822
C  -6.133745   5.481277   1.123608
C   0.252904 -17.204378   8.425753
C   2.656758   0.979284   2.074714
C  24.879831  -6.500229   3.549850
C   5.447847   8.608266  -6.627764
C  -1.351794  10.896941  -9.447496
C   8.033195 -19.043934  -4.321482
C -40.530197  13.606908  18.689156
C  16.008955   1.126386  -7.986093
C   0.491766  20.675869 -12.397719
C   9.934675  -4.073433  30.180119
C -49.482944 -20.192175 -72.601028
C  45.664616 -13.912774  16.753416
C -23.721128  55.444645  65.108749
C  12.273826   4.084539 -11.360339
C -16.548950 -29.581371 -17.344370
C   1.081938  -0.859008  -6.195840
C   5.901371  -4.125299  -1.027472
C -19.457575  -2.380208  28.548649
C  -5.937316  -0.333624 -11.241345
C   6.943292   5.349045 -23.536295
C  41.417107  -5.848156  11.210077
C -13.811402  11.844124  -0.442812
C   1.444229 -13.349329  -2.548943
C -10.346740   1.764088 -15.559702
C  24.521399  -7.091969  11.667890
C  -5.683185   0.868096   6.025345
C -18.877861  20.220879 -24.765434
C  -6.421809  -7.985761   7.316923
C  11.207327  -8.433073  21.010546
C   3.647882  -4.017569   2.537099
C   0.366548  17.706051 -66.341148
C  -1.160594   6.080644  59.509834
C -15.277301 -14.529582 -13.115007
C   6.661559   6.386591  18.602400
C -13.762022  14.235744   4.567143
C  -2.149016  -1.550325   2.823380
C  15.098318 -21.289709 -24.369009
C   1.081569   9.791596   6.806471
44
44
C  12.525337   2.449164  -6.881719
C  -6.125695  -0.970972  18.814024
C   5.595026 -15.611599 -14.346226
C  -1.693164   8.583756   6.506038
C -17.238354  11.198445 -17.981308
C   8.592721  -0.788107   6.745934
C   2.431962   3.630435  10.025536
C -20.939779 -19.713726  13.181210
C  17.629562 -11.366510 -41.234222
C -10.938214   4.480891  -5.108411
C   4.892563  -0.318240  -6.387121
C  -8.288954 -18.889156  17.901461
C   6.742811   0.808871   7.243503
C  13.321297  23.625055  -3.920242
C  15.598442  16.869087  15.668074
C -14.537677  -1.410233   7.702920
C   7.363116   0.589543  11.516065
C -16.043165  -4.984671 -20.070040
C  13.058352 -17.034983 -21.149311
C -11.712991   7.302935  -7.912474
C   7.408829  23.989574  15.040883
C  -6.534730  -8.889739  16.506828
C   5.894931  -2.166538   8.525601
C  -5.245643 -20.791895   9.779990
C   9.288318   6.460790   6.522043
C   3.375162  13.090358  14.126239
C -61.673599   7.119228 -41.935863
C  15.215912  -3.224541 -12.624412
C  36.184139 -13.334960  26.690102
C  -5.936500   3.102145  -4.072774
C   0.238760  20.404345  -1.025694
C  -3.458157   8.204372   4.848572
C -49.522652 -19.738533 -17.698887
C  34.395580   6.543405  -5.276861
C  16.077330   0.546193  29.252558
C  -2.299818   3.447514  -6.967201
C   5.539416   8.973836 -21.443806
C   5.490276 -18.176929   3.837111
C -33.574821  -1.868744  29.635885
C  10.000922 -11.198451 -13.403970
C  25.776958   7.283248  -4.216590
C  14.598500  -0.798122  -7.007607
C  -6.350490   5.024794  13.807606
C -14.316423  -4.478497 -10.690640
44
44
C -18.892679  -7.597693   0.387302
C   1.376093  33.504368  14.972547
C   6.803528 -13.884656 -14.036653
C  -1.324050   3.435650  -8.783434
C -56.654045  -8.892374 -11.576577
C  27.761137  15.413870  -3.238842
C  68.673012 -13.651777  19.641977
C -23.751053 -22.157789   9.157331
C  37.623837  19.640192 -28.520945
C -22.680449 -17.988390   0.610418
C  -2.072039  -7.407589  46.094479
C  -2.078490  10.592198 -20.065145
C   4.218597   6.333742 -10.611249
C  -6.187482  -6.120676  -2.817636
C   3.793439   0.504521  -1.898723
C -25.899473   1.478421 -17.448263
C   7.188240   1.715906  -0.334468
C   2.249933   2.740452   4.852033
C -35.827560  -1.202752 -22.389435
C  -2.479051  -3.309069   9.409941
C  13.768362  17.408720  43.780033
C  21.029100 -13.636052  -6.443988
C  22.157246  18.686359  -9.422956
C -28.535822 -15.444777   2.051378
C  -5.576406  -2.794727   0.852748
C  -5.580372  -7.739021  -1.369596
C  36.382694  13.149379  30.713520
C   2.981439 -11.140637 -17.475233
C  -0.518963  26.521996   6.003299
C   1.150455  -4.586036  -5.069097
C  35.762020  -9.999947 -56.794743
C -24.891201   8.336551  50.091042
C -63.679352   2.600197 -58.877892
C -11.937816 -18.120722  -2.123808
C  29.241158   3.672887  53.933414
C   9.764296   0.235863   7.070453
C -11.688320  24.194311 -49.296417
C   1.254098  -3.263749  30.475266
C  10.848989 -21.914244  50.017132
C   5.437425 -13.364989 -23.665617
C  10.126330 -23.011536  -9.426251
C   7.691828   4.337154  -2.762994
C  -7.990768  15.349478  -5.527764
C  -8.261217  16.751036   9.835530
44
44
C  10.485169   1.042510  -0.302441
C  -0.986551 -25.502247   4.584965
C  -4.623963  -1.217797   0.081087
C   1.490192   5.675084   7.087710
C  -6.851262  11.932456  -2.818017
C  16.173418   0.334534   9.687316
C -37.382076  -4.007235 -36.891220
C  27.575407  17.509089   9.932896
C -34.995102 -42.205025  34.306068
C  25.056547  27.657684 -12.707137
C  -0.759884   0.577998  13.150586
C -12.655375 -16.491032   3.705412
C  10.669667 -13.112498  -5.923495
C  10.195295  29.098442 -12.726575
C -15.886675  15.179206 -12.989124
C  -5.601134   0.980513   3.998858
C -25.484158  -3.704091   4.843438
C  12.705270   0.496530   7.425706
C  64.389259  -4.467419  10.555295
C  -8.587069   0.084698  -8.861704
C -21.207577   5.479179 -19.569941
C  -7.812046  -0.741436   5.497035
C   0.650164   9.986950 -22.499657
C   3.005114  29.940399  25.757923
C   6.453394  -9.883869 -15.250385
C -12.556304 -13.791648 -10.227162
C -10.303979 -21.008633  32.586338
C  29.392784  -6.274167  -5.283082
C  29.461687 -14.495215 -26.464024
C -13.783026   8.696925  22.856379
C -12.418159 -19.913975  22.971823
C  14.378447  12.493322 -13.144550
C -39.828049 -12.444965  -2.402537
C  11.264545  21.999788  13.706911
C  18.622271  -0.124702  -5.092357
C   5.659236  -0.150251 -11.251185
C -53.345360  15.317689  34.031990
C  19.696352 -13.167839 -34.428108
C  -3.001987  29.762493   2.798884
C  -4.191681   0.008315  -2.462051
C  21.203543  24.893717   0.783769
C  -4.936179  -5.309460  11.200911
C  -4.215004 -45.130985 -24.416309
C   2.660454   3.928311   3.889632
44
44
C  -8.328444  14.217868  -8.987615
C  26.843290  -9.511851  38.919720
C  -3.329034  10.508266 -13.791883
C -20.148140  -0.094855 -18.551283
C   5.382003  -6.747342  16.072577
C  -4.419752   4.105141  -8.550100
C  -2.976792  17.935396 -27.004545
C -13.331999 -22.885139   1.709952
C  14.687449 -65.524055 -24.085857
C  -7.760798  10.382113   1.925864
C  29.326111  52.560524  54.618900
C -10.002198   8.516131 -25.528774
C   4.464668  -4.950312   1.028657
C -13.089612 -21.654064   5.955988
C  98.788025 -15.367356 -20.760193
C -70.207230  11.794934  -3.921308
C -36.486294  15.926304  53.679409
C -11.836361  -5.024591 -20.738453
C  26.736563   8.962702   6.835785
C  -9.892165 -14.800757  -2.338066
C   7.352568   1.673774   8.475569
C  -5.649381  10.652790 -13.994863
C  -4.641427   2.379394   3.990096
C   2.219012   0.540625 -12.819154
C  -8.529325  -1.855947 -15.183356
C  -7.942656   4.692718  -8.617680
C 105.111053 -94.658867 -21.255165
C -43.855846  60.910473  62.106560
C -46.869240  50.766235  20.453409
C   3.229193 -18.176767 -15.885612
C  -1.199144 -46.972122   6.732219
C   6.952040   3.853053 -22.763571
C  17.288412  -4.161854  -8.593710
C   0.625812   6.287153   6.259751
C  -8.955047   4.126184  -7.855654
C   0.536202  13.158428   7.177141
C -13.328383  23.801296  22.235447
C   5.409665  -5.954638 -53.293861
C -13.710320   8.101645  38.778290
C   7.583828  -1.999527  -3.341182
C  19.218231 -10.881918 -39.188499
C -22.558256  -7.144833  11.007724
C   4.349240  18.858028  34.006073
C   3.156693  -6.663640  -8.012596
44
44
C -30.386478 -11.254951  10.219851
C   8.022997  30.814442  -1.381700
C   4.857548 -17.212009 -11.003642
C  16.894360  -3.429946  -4.187494
C  28.514154   0.233544  20.801765
C -30.011728  -5.477087 -14.746602
C -15.380069  -5.528289 -18.139986
C   5.019873  19.871943   2.780138
C  -9.041845 -44.332596  32.432152
C  34.623760  34.535511 -16.778011
C  -5.838624 -25.528721  35.012810
C  -7.200126  29.005692 -19.142044
C   2.199832  10.508982  10.591686
C  -2.406113 -10.115973  -3.794263
C -28.056820  13.889676 -45.708420
C  17.632948 -10.528779  33.462284
C  12.373226  -5.832120 -23.356060
C   3.661681  -1.369203  13.686050
C -40.393024 -29.153761  18.387943
C  39.136333  20.173239  -2.364240
C  -9.053708  -5.448282 -11.891783
C   1.085558  16.756847  -4.594579
C  -5.722125 -11.146040 -19.519863
C   9.064341 -20.726490   3.555685
C -16.310942   8.890074   6.206289
C  13.762789  27.600521  -8.481994
C   5.811900 -25.932735  35.369434
C   0.669046   6.806261 -11.163711
C -49.686573  24.379303 -39.531441
C  10.134282  -4.914075   3.268612
C  61.296741   4.621670   4.349679
C -11.867166   5.418994  16.958557
C -22.896742 -30.991089  37.468884
C  13.359747   4.078620 -17.542336
C  -4.936462  -6.577028 -12.635412
C  -1.899083   9.905342  -7.267028
C  17.492361 -15.544029  80.393120
C   2.322558   1.627953 -37.485558
C   1.483291   3.044134 -16.824062
C  -1.202115   1.627963 -21.046141
C  -8.029710  -2.180488 -57.222271
C -10.653041   5.827562   4.385785
C   1.597143  28.126909  20.148952
C  -0.736281 -14.678221  33.391090
