44
44
C  34.611355  29.306915  32.962006   1.06841605e-03   3.01872205e-04  -6.87028805e-04
C  34.388237  30.205368  33.475365  -2.45312089e-03  -5.19957044e-04   2.95428582e-03
C  35.234592  30.350025  34.157017   5.76147635e-04   1.79316878e-04  -9.33513627e-04
C  33.472561  30.006927  34.072697   8.27839540e-04   3.42476647e-04  -8.76571285e-04
C  34.171150  31.377777  32.583542   6.51201839e-03   8.94196273e-06  -3.34512861e-03
C  35.046505  32.221569  32.354156  -4.90460359e-03   1.49837357e-03   2.79398263e-03
C  32.898045  31.618601  32.214218  -5.32142632e-03   7.06877618e-04   1.66741374e-03
C  32.221771  30.980272  32.630089   3.36547149e-03  -9.65271029e-04  -1.11679430e-03
C  32.437984  32.745010  31.379221   5.16798988e-04  -7.57224116e-05  -1.01444006e-04
C  33.370377  33.283043  31.036448   1.27344241e-03  -4.06957814e-04  -2.46940646e-04
C  31.828051  32.115360  30.178419  -2.37055682e-03   6.19499013e-04   1.22200086e-04
C  31.668272  32.901737  29.455408   6.80048077e-04  -1.68475381e-04  -2.14424828e-04
C  32.584614  31.489059  29.692598   7.57063506e-04  -1.69247869e-04  -1.29272608e-04
C  30.931124  31.593918  30.497087   5.68450952e-04  -3.53208656e-04  -2.77049185e-06
C  31.511280  33.613514  32.168495   6.29222253e-03  -1.26701465e-03  -2.44515669e-03
C  30.463320  34.042786  31.657347  -4.20166552e-03   3.82789265e-04   1.45407248e-04
C  31.960453  34.050312  33.363556  -5.30281942e-03   5.77838626e-04   6.36951998e-04
C  32.765862  33.579720  33.758995   4.33120737e-03  -4.81464434e-04  -5.06996701e-04
C  31.125355  34.817009  34.283875  -1.47927739e-03   5.37189306e-04   2.97138089e-04
C  30.244383  34.266655  34.473476   6.54068892e-04  -2.93800374e-04  -1.71210922e-04
C  31.677183  35.079384  35.199032   1.30901206e-03  -1.95616856e-04  -2.91580742e-04
C  30.772409  35.739914  33.791836   5.60932793e-04   2.50684505e-04  -3.46172659e-04
C  31.369606  29.448217  35.936474   5.71205746e-04  -7.12417250e-06  -6.48628862e-04
C  30.634903  30.273409  35.898575  -7.80484115e-04   6.23201602e-04   1.87407853e-03
C  31.196169  31.103313  36.279007   8.57529987e-04  -1.48360959e-05  -5.26934396e-04
C  29.759350  29.995531  36.434097   5.70587654e-05  -2.93167192e-04  -6.25135435e-04
C  30.178928  30.511459  34.455074   2.01324257e-03  -9.80226789e-04  -3.63792758e-03
C  30.667946  29.903637  33.533794  -4.50289762e-03  -9.59636178e-04  -5.32492268e-05
C  29.118954  31.287962  34.324238  -1.09502696e-03   2.19051074e-03   7.58091803e-04
C  28.722668  31.814573  35.056618   6.71486603e-04  -1.63999619e-03  -1.21214334e-03
C  28.379269  31.525974  33.071033   1.68847415e-04  -1.21994788e-04  -6.02592081e-06
C  29.150867  31.436737  32.274452   4.69526392e-04  -3.24555818e-04  -7.00040473e-05
C  27.368338  30.402878  32.916843  -9.82680009e-04   1.05622588e-04  -4.57070098e-04
C  26.719986  30.464869  33.785603   3.64973239e-04   6.85985578e-05  -1.81630530e-05
C  26.837915  30.534163  32.033943   4.30582208e-04  -3.38457248e-05   1.08600572e-04
C  27.905521  29.432116  32.683113   3.23452608e-04   1.57026545e-04   1.26380837e-04
C  27.666231  32.888412  33.116177   3.09560215e-03  -3.55334627e-03  -1.44817086e-03
C  27.572588  33.488758  34.208714  -2.69537885e-03   3.03176930e-03   1.16658251e-04
C  27.134617  33.177071  31.916063  -2.11796165e-03   1.73772569e-03  -9.67178312e-06
C  27.283943  32.596973  31.119379   1.42790319e-03  -4.53765271e-04  -4.75949695e-04
C  26.051207  34.184563  31.804527  -3.54997406e-04   3.57086363e-04   3.42444837e-04
C  25.164841  33.699181  32.295712   2.80230510e-04  -4.02992184e-04  -2.43734336e-04
C  26.302990  35.106838  32.317333   4.32321540e-04  -1.25068240e-04  -4.21605248e-04
C  25.865431  34.474899  30.743719   4.55459347e-04  -2.14331900e-04  -3.24212742e-04
44
44
C  33.807949  29.340780  33.107883   1.78412942e-04  -6.16989448e-04   5.25590440e-04
C  33.834442  30.196333  33.737770  -9.64228966e-05   1.38636213e-03  -1.56522798e-03
C  34.777203  30.213903  34.268341   5.73356403e-04  -3.24590452e-04   4.89611761e-04
C  33.000481  30.145567  34.439903   1.57059658e-05  -1.91597443e-04   1.42677032e-04
C  33.700981  31.517708  32.972855   6.79429388e-04  -1.08350883e-03   2.34321202e-03
C  34.482559  32.446632  33.150787  -2.62892083e-03   1.42012292e-03  -8.98671569e-04
C  32.676945  31.556885  32.134563  -3.27857328e-04   9.24866530e-04  -1.36508618e-03
C  32.022041  30.757862  32.203827  -6.55101670e-04  -9.99953598e-04   5.11974329e-04
C  32.406616  32.648903  31.287491   1.24543994e-05  -5.55999832e-05  -1.68554561e-05
C  33.236874  33.233982  31.051497   3.30427807e-04  -5.02348703e-05  -9.38543526e-05
C  31.783056  32.037888  29.997440   2.92222539e-04   3.46763845e-04   3.51402588e-04
C  31.583694  32.937748  29.347050   6.20792707e-06  -6.10567586e-05  -2.56516505e-04
C  32.539864  31.352304  29.532211   4.85077226e-06  -1.50824882e-04  -1.70913001e-04
C  30.787966  31.592339  30.230162  -1.86384190e-04  -3.38156271e-04  -9.54777788e-05
C  31.576250  33.599266  32.116486  -1.70858309e-03  -1.10372179e-03  -1.67763021e-04
C  30.326992  33.735504  31.854729   1.12085778e-03  -7.81564042e-04  -1.63064827e-03
C  32.005707  34.210808  33.243748  -7.71973573e-05   5.79722342e-04  -1.66786043e-03
C  33.060081  34.255657  33.506195   1.25018868e-03   3.13343393e-04   1.11652236e-03
C  31.108608  34.876167  34.173008   1.25105667e-04  -1.99744070e-04  -5.37161541e-04
C  30.166605  34.311104  34.468559  -4.13401664e-04  -9.10468370e-05   4.03661805e-04
C  31.623573  35.255104  35.091957   1.67488179e-05   2.62821239e-04   5.81772707e-04
C  30.667276  35.794231  33.689472  -3.55730124e-04   4.90672363e-04   3.74647672e-04
C  31.303453  29.578634  35.721695  -3.29874601e-04  -1.43208934e-04  -7.14947237e-05
C  30.466831  30.222082  35.725952   2.04650778e-03   1.05598650e-03  -6.25605928e-04
C  30.883739  31.140697  36.164562   1.79932431e-05  -2.31105703e-04   2.31493177e-04
C  29.621613  29.709242  36.301472  -6.78128563e-04  -3.96640418e-04  -1.16340336e-04
C  29.966539  30.550640  34.367420  -2.41442770e-03  -2.52549397e-03  -5.70854056e-04
C  30.524485  30.038296  33.410530   1.57885649e-03   8.54300393e-04  -4.65772068e-03
C  28.855202  31.275352  34.162193   1.43097877e-03   2.79461918e-03  -2.40506860e-03
C  28.480488  31.715317  34.974438  -8.19435576e-04  -1.61723699e-03   1.91535975e-04
C  28.104204  31.527794  32.985226  -5.74580336e-05  -2.00605558e-04   9.96930758e-05
C  28.717607  31.725712  32.120846  -4.13055823e-04  -4.00439196e-04   6.53858588e-05
C  27.255512  30.228148  32.742092   4.06926032e-04   5.78889449e-04  -6.81080099e-04
C  26.455334  30.128683  33.506802   4.83636759e-05  -7.14489506e-05   1.99997288e-04
C  26.791336  30.250826  31.761894  -8.40183056e-05  -1.26172163e-04   1.06550797e-04
C  27.799721  29.263931  32.762417  -6.23965389e-05  -8.35368919e-05   1.53482688e-04
C  27.239428  32.789833  33.063217  -2.37613008e-03  -3.46465269e-03   7.64916535e-04
C  27.223885  33.519539  34.034283   1.12518226e-03   1.21638726e-03  -3.68332211e-03
C  26.456404  32.986305  31.958672   2.00896640e-03   4.13434580e-04   2.60879810e-04
C  26.657518  32.337532  31.212734  -1.10836816e-03  -7.03961879e-04  -5.06982688e-05
C  25.631126  34.138554  31.624865   7.94414780e-04   2.25827040e-04   5.58071537e-04
C  24.738770  34.225609  32.201897  -4.00551740e-04  -4.07169791e-05  -2.84876733e-04
C  26.185661  35.012539  31.871164  -5.60154440e-04   1.08817549e-05  -8.17091059e-05
C  25.430256  34.233273  30.533211  -4.18247742e-04   5.04176642e-05  -9.94748480e-05
44
44
C  33.329800  29.309755  32.930206   2.14903965e-04  -7.66806770e-04   2.51534686e-04
C  33.728157  30.075918  33.575623  -3.65768006e-04   2.66109942e-03  -1.31110405e-03
C  34.724548  30.011173  34.041492   8.97822378e-04  -8.63099238e-04   1.93612999e-04
C  33.096832  30.077282  34.377010   1.42656878e-04  -5.69031399e-04   7.31581968e-05
C  33.520885  31.367939  32.951164   3.20809265e-03  -4.03380627e-03   2.64027319e-03
C  34.207649  32.311581  33.411320  -3.57429893e-03   2.37510749e-03  -1.19647931e-03
C  32.659966  31.363396  31.946318  -6.64847903e-04   2.81257671e-03  -5.69531519e-04
C  31.987207  30.598888  31.863665  -2.00855793e-04  -2.53999443e-03   8.04517244e-04
C  32.389168  32.672127  31.246271   9.96288218e-05  -7.22316327e-05  -8.58542044e-05
C  33.232109  33.247738  31.100180   5.21858921e-04  -1.57951334e-04  -1.94665554e-04
C  31.755754  32.331543  29.867737  -1.23578226e-04   4.28187079e-04   8.92687938e-04
C  31.607159  33.297989  29.339418   1.91102572e-05  -1.88594102e-04  -3.49297392e-04
C  32.463417  31.697321  29.340206   1.07899054e-04  -2.44748982e-04  -2.97391030e-04
C  30.823462  31.740921  29.859270   7.85677912e-06  -3.92693299e-04  -1.73906315e-04
C  31.370440  33.470604  32.122086  -1.43727195e-03  -1.56358338e-03  -2.00683397e-04
C  30.231194  33.548321  31.719957   4.74766304e-04   1.41328527e-03  -8.00920592e-04
C  31.803743  34.119022  33.216862  -7.29110383e-04   4.09850560e-04  -1.33022037e-03
C  32.776119  33.975151  33.466106   1.81892724e-03  -3.23125219e-04   1.08511175e-03
C  31.038515  35.052586  34.050758  -3.04037749e-05   1.02817503e-04  -4.77260153e-04
C  30.539621  34.469727  34.879589   8.83901521e-07  -2.65458657e-04   3.93824972e-04
C  31.705717  35.683075  34.601833   4.60286101e-04   4.48368140e-04   2.86886556e-04
C  30.295574  35.641365  33.526016  -3.91595167e-05   1.49253174e-05   4.98627080e-04
C  30.968943  29.413254  35.807331  -2.36605352e-04  -5.15187625e-04   1.10621644e-04
C  30.231627  30.231298  35.782658   9.13372671e-04   2.29192246e-03  -1.40565797e-04
C  30.742090  31.136921  36.167316   1.83362790e-04  -7.58222421e-04   3.03551060e-04
C  29.358833  30.013123  36.358727  -2.93012301e-04  -7.94876600e-04  -1.61485732e-04
C  29.800659  30.488176  34.407326  -3.07616545e-03  -4.69767489e-03  -7.58595066e-04
C  30.458229  29.993139  33.503681   6.54530362e-04   2.53093266e-03  -3.49714886e-03
C  28.726610  31.279045  34.301315   1.32443360e-03   4.31411108e-03  -1.06935645e-03
C  28.531597  31.894497  35.041752  -6.37469115e-04  -2.53550545e-03  -1.56066861e-04
C  27.915234  31.362059  33.112968  -5.89705269e-05  -2.52684869e-04   6.08226183e-05
C  28.633917  31.370844  32.278866  -4.10647801e-04  -6.08892879e-04   1.83613782e-04
C  26.933258  30.207466  32.978527  -3.48501671e-05   8.77512037e-04  -5.01657778e-04
C  26.138067  30.444973  33.681461   1.12739021e-04  -2.48751399e-04   1.07345128e-04
C  26.415356  30.258532  32.016541   3.68068031e-05  -1.81766110e-04   2.10578059e-04
C  27.384909  29.306488  33.180058  -6.10079587e-05  -2.86913983e-05   9.64077626e-05
C  27.102695  32.700836  32.947304  -2.30459752e-03  -4.65526478e-03  -4.74609697e-04
C  27.049053  33.493958  33.870743   1.43002381e-03   3.68885673e-03  -2.38845591e-03
C  26.584557  32.978962  31.711740   1.78018888e-03   1.41300203e-03  -1.10460256e-04
C  26.674440  32.285862  30.922829  -5.46554918e-04  -8.75727681e-04  -1.70072875e-04
C  25.651535  34.093891  31.486629   5.31352882e-04   7.00573437e-04   5.49459306e-04
C  24.963285  34.153500  32.265034  -2.05021614e-04  -2.79384432e-04  -1.95827917e-04
C  26.200590  35.025196  31.497223  -4.83228621e-04  -2.16496002e-04  -4.63504024e-04
C  25.166195  33.991592  30.564478  -1.39534764e-04   6.94994233e-05  -2.80515342e-05
44
44
C  33.127266  28.959137  33.016087  -1.36181567e-04  -4.45125625e-04  -1.40013319e-04
C  33.420021  29.706738  33.768028  -1.95563407e-04   1.23842712e-03  -3.03989684e-04
C  34.537258  29.604177  33.977798   5.70970995e-04  -3.99536977e-04   3.19199928e-04
C  32.814110  29.571323  34.643654  -1.81113122e-04  -2.03903517e-04   4.10607288e-04
C  33.105423  31.121593  33.216923   8.52068537e-04  -3.08217714e-04   6.76714757e-04
C  33.645626  32.066521  33.746468  -4.81362513e-04   1.20458985e-03  -1.01949985e-03
C  32.549316  31.181652  32.019196  -7.19998090e-04   2.70122342e-04   1.39757397e-03
C  32.136391  30.390778  31.633331  -8.70006275e-04  -1.32055534e-03  -1.44975225e-03
C  32.331142  32.417068  31.198320   5.59319305e-05  -8.68573043e-05  -2.24103045e-04
C  33.307716  32.906746  31.162441   3.61279759e-04  -1.42100966e-04  -3.75729636e-04
C  31.990898  31.919806  29.820606   2.19531677e-04   4.64995683e-04   1.22295669e-03
C  31.878851  32.784832  29.185356  -5.36606094e-05  -2.26732416e-04  -3.86250438e-04
C  32.764496  31.242506  29.481819  -9.47555091e-05  -1.13200382e-04  -3.66115477e-04
C  31.111988  31.350887  29.713018  -1.16858908e-04  -2.81929417e-04  -4.27828665e-04
C  31.246431  33.332668  31.882299  -3.79488862e-04  -1.19068450e-03  -1.79095438e-03
C  30.204199  33.730755  31.355709   1.98947010e-03   2.90110940e-04   1.50330097e-03
C  31.575653  33.773071  33.123085  -3.38236539e-04  -1.46890146e-04  -7.24858081e-04
C  32.486851  33.343903  33.498432   5.30407880e-04   1.10357432e-05   7.09480315e-04
C  30.875748  34.885406  33.794598  -3.28587448e-05  -1.26753526e-04  -3.13050725e-04
C  30.051817  34.480476  34.424694  -2.25943892e-04   6.95117487e-05   2.40537411e-04
C  31.484779  35.622749  34.278744   5.81956061e-04   6.61180762e-04   1.60707830e-04
C  30.312798  35.410164  33.038235  -2.81269575e-04   2.01085146e-04   1.05804666e-05
C  30.984241  29.741468  36.058533  -1.19209799e-04  -7.82144416e-05   3.57845274e-04
C  30.182070  30.447212  35.921989   1.15415151e-03   8.22295784e-04  -7.38761330e-04
C  30.744549  31.397738  35.968632   6.54919422e-05  -2.73869082e-04   4.11247951e-04
C  29.393862  30.281260  36.701870  -4.38407296e-04  -4.62793891e-04   1.47074592e-04
C  29.710447  30.341505  34.453049  -3.52948508e-03  -1.31699815e-03  -1.29530602e-03
C  30.282312  29.603174  33.654613   2.55009485e-03   3.41449771e-03  -1.27966702e-03
C  28.779842  31.177319  34.130829   2.03519175e-03   1.61610381e-03   6.34652679e-07
C  28.522640  31.928102  34.815205  -1.32512220e-03  -7.00281467e-04   1.01764119e-04
C  28.073942  31.362938  32.826927  -2.16724860e-04  -1.77986018e-04  -1.07946114e-04
C  28.873589  31.485573  32.041882  -6.60047575e-04  -4.57389804e-04  -2.59029679e-04
C  27.192318  30.173708  32.493839   9.12410091e-04   8.51542514e-04   2.63501890e-04
C  26.532562  29.994110  33.320305  -1.31432214e-04  -2.33442159e-04  -2.02818308e-04
C  26.602407  30.206791  31.526178  -1.67550374e-04  -7.80282644e-05  -1.01167156e-04
C  27.863255  29.306196  32.498844  -3.13934404e-04  -1.69923267e-04  -1.25699269e-04
C  27.277565  32.700905  32.842896  -2.87481374e-03  -3.36055853e-03  -2.64535937e-03
C  27.219666  33.336552  33.958790   2.60722032e-03   2.05541099e-03  -1.07793347e-03
C  26.768463  33.137844  31.677446   1.87860464e-03   1.54620304e-03   5.72508667e-04
C  26.943037  32.617336  30.856142  -1.09031890e-03  -7.61615229e-04  -1.24195847e-03
C  25.944052  34.257065  31.455482   6.89109846e-04   5.61828027e-04   7.79308204e-04
C  25.059074  34.236855  32.090065  -5.91723016e-04  -3.99316923e-04  -4.10841982e-04
C  26.548954  35.087715  31.808685  -4.85588185e-04   3.64222069e-05  -2.47352727e-04
C  25.696547  34.409588  30.362118  -3.98291100e-04  -2.39139568e-04  -4.23872523e-04
44
44
C  33.033695  29.265532  33.122208  -5.15370775e-05  -3.83932667e-04   2.02443334e-04
C  33.745445  29.965584  33.575748   5.56395564e-04   1.66033790e-03  -3.80004931e-04
C  34.790565  29.602728  33.404278   5.77767030e-04  -6.81327889e-04   1.11766458e-04
C  33.568859  30.186201  34.638870  -1.27128020e-04  -1.01467696e-04   4.57085524e-04
C  33.648773  31.274164  32.842834   7.02295802e-04  -1.10376824e-03   1.54442270e-03
C  34.356380  32.223331  33.082279  -2.95365439e-03   8.93133285e-04  -1.05649186e-03
C  32.689655  31.262632  31.926456  -4.33357985e-04   9.74246301e-04  -7.84892356e-04
C  32.030369  30.491262  31.933790  -4.19663964e-04  -2.01009051e-03  -5.73577010e-04
C  32.312519  32.353531  31.067259   9.35547359e-05  -8.30655990e-05  -1.50560067e-04
C  33.197948  32.838902  30.728779   4.80965246e-04   1.48588988e-05  -3.54087300e-04
C  31.724272  31.767445  29.797915  -1.43151410e-04   8.29879427e-04   7.25188700e-04
C  31.784201  32.580112  29.083214   1.94653949e-05  -1.37167415e-04  -3.22993030e-04
C  32.288383  30.965733  29.404888  -1.88474642e-05  -2.58818676e-04  -1.54659603e-04
C  30.668673  31.414265  29.895599  -5.05295757e-05  -2.99696956e-04  -2.43257120e-04
C  31.318911  33.233589  31.860130   2.26385891e-05  -5.68254036e-04  -2.26035574e-03
C  30.170931  33.399151  31.411812   2.08717096e-03  -3.04969057e-04   8.42556125e-04
C  31.643507  33.756413  33.033905  -1.07792544e-03  -9.66108113e-04  -1.81649812e-03
C  32.572010  33.638344  33.464005   8.94830446e-04   3.29490838e-04   1.44569948e-03
C  30.687243  34.594090  33.724319   1.88620485e-04  -1.77806927e-04  -7.15081464e-04
C  29.936939  34.002430  34.210438  -1.82173797e-04  -2.00129398e-05   5.17604756e-04
C  31.184082  35.073845  34.502609   3.28319904e-04   3.41587642e-04   5.64758258e-04
C  30.250225  35.287041  33.056507  -2.53110891e-04   4.52247652e-04   3.05994996e-04
C  31.178801  29.569939  35.754406  -4.24930069e-04  -2.19624286e-04   3.75933276e-04
C  30.563467  30.370728  35.634174   1.20848918e-03   1.26244430e-03  -1.58699835e-03
C  30.983906  31.339584  36.065521   3.24607863e-05  -1.80319184e-04   4.23990597e-04
C  29.730280  30.030766  36.296711  -5.57924912e-04  -7.70950515e-04   1.15236908e-04
C  30.043774  30.531000  34.242012  -2.28279340e-03  -1.63730641e-03   1.32275920e-03
C  30.619709  30.005522  33.372765   8.35075276e-04   1.22138578e-03  -2.50640791e-03
C  28.862730  31.168467  34.104919   9.74591821e-04   1.26497797e-03  -2.80494755e-03
C  28.379042  31.763954  34.834091  -6.52006245e-04  -1.25829864e-03   7.90286635e-04
C  28.121304  31.377728  32.865185  -1.68800572e-04  -1.97599526e-04  -1.58099501e-05
C  28.891144  31.522633  32.024242  -5.77805622e-04  -5.17182343e-04  -5.08982666e-05
C  27.383312  30.048748  32.626415   7.46323378e-04   8.25983705e-04  -1.03559854e-04
C  26.581043  29.863361  33.292999  -2.25395124e-04  -1.31520064e-04   1.61598029e-04
C  26.942514  30.080582  31.586987  -2.57332955e-04  -2.03872551e-04  -4.84828488e-05
C  28.049627  29.156898  32.683929  -2.61426263e-04  -1.52507346e-04   2.11285915e-05
C  27.253756  32.721760  32.923222  -2.50314642e-03  -2.95557757e-03  -1.18195126e-03
C  26.673409  33.030178  33.985916   2.38255993e-03   8.97024409e-04  -3.35856387e-03
C  27.009924  33.324303  31.723682   2.36365059e-03   1.02523656e-03   7.76980305e-04
C  27.654150  33.024677  31.028048  -1.23087387e-03  -5.16672619e-04  -7.41588126e-04
C  25.992504  34.319431  31.362103   7.54774839e-04   2.87418487e-04   6.82537095e-04
C  25.132050  34.339645  32.009499  -4.86480450e-04   1.08837630e-05  -2.86271854e-04
C  26.465631  35.308445  31.288414  -4.93857951e-04   1.90317573e-04  -3.94290837e-04
C  25.640617  34.060902  30.356220  -5.90502634e-04  -7.20935423e-05  -7.45606958e-05
44
44
C  33.565681  29.373350  33.293873  -1.45716011e-04   9.87083622e-05   1.07835716e-04
C  34.303360  30.239128  33.386063   5.61459383e-05  -9.71412577e-04   2.27221099e-05
C  35.313183  29.981455  33.111809   6.61713246e-04   9.01845997e-05  -1.57141811e-04
C  34.415871  30.560604  34.445057   4.74291883e-05   3.52364645e-04  -9.55635696e-05
C  33.833626  31.408123  32.544827   1.34998152e-03   2.04410357e-03  -1.66643213e-03
C  34.548672  32.398643  32.559452  -1.30433706e-03   8.38070293e-04   1.38483441e-03
C  32.765121  31.272797  31.816448  -1.86272548e-03  -2.35899526e-04   7.58677197e-04
C  32.168896  30.500916  31.870863   8.26167379e-05  -2.34774518e-04  -9.21516155e-04
C  32.235001  32.359478  30.911743   1.16428724e-04  -4.59336552e-05  -7.23705889e-05
C  33.061199  32.966785  30.669348   3.58266057e-04  -1.96163528e-04  -3.52260860e-04
C  31.674585  31.778257  29.623081  -4.03328566e-04   1.91551080e-04   4.47202357e-04
C  31.349407  32.579468  28.996721   7.96682725e-05   8.51442928e-06  -3.60776467e-04
C  32.427177  31.190229  29.043587   1.11069407e-04  -2.46977179e-05  -2.19135894e-04
C  30.784109  31.217093  29.851025  -8.67345443e-06  -8.90503725e-05  -1.99347356e-04
C  31.231081  33.241276  31.618414  -7.16738650e-05  -4.95097018e-04  -2.11246731e-03
C  30.183863  33.626534  31.174343   5.10716520e-04  -7.06404971e-04   4.79359514e-05
C  31.526134  33.505405  32.898087  -1.09484443e-03   1.54005073e-04   1.41979035e-04
C  32.461140  33.130848  33.180912   6.50136732e-04  -1.82246527e-04  -1.79023540e-04
C  30.694883  34.306118  33.814442  -2.16936838e-04   4.47360180e-05   1.88823746e-04
C  30.041719  33.497890  34.247757  -1.45982078e-04  -2.81433051e-04  -1.42328659e-04
C  31.383814  34.708904  34.511425   6.49813912e-04   2.96621904e-04   2.24988034e-05
C  30.136623  35.056458  33.332184  -5.33937418e-05   1.07260508e-04   7.00362943e-05
C  31.198551  29.771629  35.718479  -1.41150813e-04   2.19872614e-04  -3.52392875e-04
C  30.531765  30.570627  35.694702   1.46232574e-04   3.16817488e-04   7.00745906e-04
C  31.087635  31.418886  36.063232   2.98035855e-04  -7.16394788e-05  -3.63227795e-04
C  29.655872  30.414581  36.355457  -2.51833146e-04  -9.81223275e-06  -3.47237015e-04
C  29.999237  30.687506  34.367470  -1.56340492e-03  -2.21245922e-04  -1.22519664e-03
C  30.642687  30.208044  33.423546   3.71901959e-04  -6.42033061e-04  -1.26136490e-03
C  28.810780  31.207491  34.231464   7.29780877e-04   1.08453375e-03  -2.00116890e-04
C  28.270313  31.491659  35.043556   3.53173455e-05  -9.05027031e-04  -3.05166264e-04
C  28.121923  31.346882  32.946861  -1.23995051e-04  -9.88061292e-05  -6.61097220e-05
C  28.730055  31.580862  32.088223  -4.42319899e-04  -2.83538160e-04  -1.14721821e-04
C  27.299950  30.044985  32.737797   5.11652208e-04   1.47349274e-04  -1.05495536e-04
C  26.535114  29.947653  33.510765  -1.11704030e-05  -1.72857108e-06  -5.90624986e-05
C  26.776262  29.979841  31.739893  -8.42504087e-05   4.08364140e-05  -1.12818998e-05
C  27.894043  29.183136  32.852673  -1.23681515e-04  -1.27603107e-05   3.05365757e-05
C  27.188583  32.528542  33.083199  -5.02784038e-04  -3.89772002e-03  -3.45743843e-03
C  26.793680  32.922684  34.198086   2.12369763e-04   3.21619119e-03   1.67832186e-05
C  26.717310  33.021904  31.879189   4.70312865e-04   1.95485866e-03   1.06999220e-03
C  27.152065  32.571037  31.132263  -1.47323808e-04  -3.88956629e-04  -5.57638006e-04
C  25.689228  34.090683  31.735582   1.56821596e-04   8.94874465e-05   4.02492209e-04
C  24.742851  33.777805  32.124466   2.48434262e-05  -3.42768035e-04  -3.83192324e-04
C  25.873177  35.080639  32.159138   1.19717180e-04   1.21641948e-04  -5.58829051e-04
C  25.448223  34.243992  30.697248   1.33836220e-05  -1.61461954e-04  -2.86849885e-04
44
44
C  33.022717  29.442686  33.619232   2.46125674e-05   2.30636651e-04  -6.08576462e-04
C  33.871712  30.102943  33.768070  -2.07610829e-05  -1.24467735e-03   2.11006124e-03
C  34.811943  29.582228  33.588604   5.32332109e-04   2.80565495e-04  -3.47744644e-04
C  33.928082  30.538498  34.835285   1.70075896e-06   8.08387471e-04  -3.86314292e-04
C  33.728008  31.162481  32.728222   1.79663638e-03   2.28759367e-03  -1.01852685e-03
C  34.488350  32.148052  32.654350  -1.36479957e-03  -7.77972571e-04   1.44699460e-03
C  32.588913  31.127533  31.939104  -1.59449386e-03  -1.29778008e-03   1.46978666e-04
C  31.889635  30.393011  32.108902   9.36529483e-04  -2.09638209e-04  -8.42813024e-05
C  32.152283  32.174210  30.946993   1.33788155e-04   1.00863370e-04  -3.95985480e-05
C  33.027069  32.755768  30.746561   2.87668925e-04   5.70787051e-05  -2.48007971e-04
C  31.553289  31.490059  29.642557  -6.81279111e-04  -3.65310028e-04   1.54352456e-04
C  30.834389  32.177589  29.098003   1.08456035e-04   1.93791740e-04  -1.51202432e-04
C  32.418777  31.414148  29.011646   3.88068263e-04   1.32617177e-04  -9.65612562e-05
C  31.069952  30.514278  29.865686   1.06346219e-04  -2.22941144e-05  -4.84639204e-05
C  31.059816  33.017879  31.703217   1.65980961e-03   1.86285470e-03  -2.44736468e-04
C  29.991549  33.354324  31.166922  -2.04006257e-03  -2.37237290e-03  -4.19413642e-04
C  31.415447  33.417961  32.926121  -1.57509185e-03  -9.22812731e-04  -3.84931132e-04
C  32.355408  33.238350  33.224838   1.35412579e-03   8.28908640e-04   4.32151952e-04
C  30.595598  34.170769  33.896881  -5.73623111e-04   1.57097347e-05   6.48174318e-05
C  30.248865  33.512276  34.708824   6.38049023e-05  -1.29329928e-05  -2.24314281e-04
C  31.238405  34.773190  34.484394   7.30940024e-04   2.10607832e-04  -1.21057674e-04
C  29.752941  34.691547  33.435204   1.99280170e-04   2.59640510e-04   1.87645550e-04
C  30.876743  29.805006  35.790585  -2.41126821e-04   5.96180500e-04  -2.06611905e-04
C  30.221062  30.618639  35.644539   1.02825335e-03  -7.69026577e-04   8.04752344e-04
C  30.832130  31.534363  35.843983   1.40012007e-05   3.22301115e-04  -3.42222949e-04
C  29.411488  30.698751  36.296665  -6.43235224e-04   6.46457047e-05  -5.27903961e-04
C  29.668528  30.560163  34.228012  -2.27811094e-03   1.42715510e-03  -8.70226882e-04
C  30.268070  29.939846  33.331535  -9.93652793e-06  -1.64283079e-03  -4.01458878e-04
C  28.579784  31.260464  34.058899   1.26274675e-03  -9.54682182e-05  -9.60022386e-04
C  28.201235  31.888958  34.805508  -4.29724081e-04  -4.36853850e-04   2.79201660e-04
C  27.754196  31.320654  32.844341  -9.01630046e-05  -1.16353640e-05   1.06481741e-04
C  28.497341  31.516544  32.049358  -1.93198968e-04  -8.77732164e-05   1.97414789e-04
C  27.085045  29.929129  32.588085   5.96410187e-04  -2.12203449e-05  -7.78364600e-04
C  26.630276  29.722486  33.545204  -1.15702715e-04   3.65444503e-05   5.76127713e-05
C  26.398790  30.112457  31.779806  -1.41811179e-04   8.12338403e-05   9.69094253e-05
C  27.823044  29.191019  32.352901  -1.64802579e-04   3.66714885e-05   1.32050583e-04
C  26.747614  32.470024  32.847851  -1.06255873e-03  -2.41757347e-03  -7.04817649e-06
C  26.410381  32.957954  33.903988  -1.85643599e-04   1.98912178e-03  -1.78495515e-03
C  26.427452  32.963737  31.594124   4.35725146e-04   6.39475067e-04  -5.46824594e-04
C  26.973623  32.604321  30.814194  -5.25955518e-04   5.04094314e-05  -3.49630223e-04
C  25.307793  33.880444  31.360611   3.30862968e-04   6.24456807e-05   1.45375030e-04
C  24.414740  33.483021  31.832760  -1.26072191e-04   1.96814108e-05  -3.20392253e-04
C  25.506756  34.783985  31.878180  -1.53110028e-04   1.39699216e-04  -1.76749250e-04
C  25.057543  33.940403  30.276419  -6.26742622e-05   3.08882329e-04   3.64787149e-04
44
44
C  32.853642  29.259995  33.852108   2.18459580e-04   1.59809759e-04   5.60158660e-05
C  33.503414  30.033606  33.936031   5.30692996e-05  -9.32656054e-04  -1.96240653e-04
C  34.503643  29.672606  33.879326   4.67774575e-04   1.25729333e-04   7.22869663e-05
C  33.442341  30.466928  34.953079  -2.98063242e-04   4.66425787e-04   5.17207482e-05
C  33.335281  31.050993  32.877903   6.63443352e-04   1.00606732e-04   5.79817221e-04
C  34.065964  31.997433  32.793575  -7.61758594e-04  -1.89830689e-03  -2.20576389e-04
C  32.420280  30.898003  31.938276  -1.80708274e-04  -1.26670592e-03   4.29470412e-04
C  31.883772  30.094822  31.929245   2.43413524e-04  -5.93406672e-04  -7.48048420e-04
C  31.926975  31.869352  30.998423   7.65567893e-05  -4.12721092e-05  -7.26054568e-05
C  32.814911  32.259312  30.489367   2.91829172e-04  -8.56633415e-05  -3.20772204e-04
C  31.188820  31.181921  29.883223  -5.72473626e-04   2.69795128e-04   4.71799780e-04
C  31.051407  31.854450  29.059134   2.28146047e-04  -6.02051696e-05  -2.74456310e-04
C  31.753433  30.304609  29.550711   9.65382715e-05  -7.47960512e-05  -1.93777756e-04
C  30.284180  30.789160  30.361067  -2.57021984e-05  -1.88492791e-04  -1.71962922e-04
C  31.207769  33.074825  31.577461   7.78306916e-04   1.47522218e-03   3.87784967e-04
C  30.272657  33.525761  30.897171  -3.73536837e-04  -2.26912159e-03  -6.27364730e-04
C  31.508945  33.501709  32.799225  -3.85024643e-04  -1.80060207e-03  -1.72628067e-03
C  32.473293  33.174328  33.052971   4.96682362e-04   4.17186762e-04   1.42696186e-03
C  30.717428  34.406342  33.553982  -2.26942109e-04  -3.80382320e-04  -3.80957965e-04
C  30.362123  33.843460  34.448750   4.07103362e-05   2.30479098e-04   2.11215272e-04
C  31.207560  35.333691  33.804562   3.42353247e-04   5.99884428e-04   6.65842017e-05
C  29.794502  34.646206  33.018723  -1.03522303e-04   1.91401748e-04   2.52523285e-04
C  30.586535  29.977667  35.791996   1.68589613e-05   1.99453600e-04   1.17071759e-04
C  30.082338  30.898621  35.610088   1.06341951e-03  -7.70175131e-04  -1.11184188e-03
C  30.649446  31.797844  35.646301   9.77528762e-05   2.06648110e-04   2.35762709e-04
C  29.382607  31.062841  36.442612  -5.55002305e-04   1.33779395e-04  -1.06371026e-05
C  29.490318  30.867813  34.240532  -2.01427145e-03   8.50242504e-04  -2.84002977e-04
C  30.092281  30.325497  33.353199   8.38173612e-04  -2.22144579e-03  -1.65647198e-03
C  28.375788  31.503450  34.027130   1.88727805e-03  -7.03326077e-06  -1.36724953e-03
C  27.771448  31.811686  34.833168  -1.08405715e-03  -7.55917223e-04   8.82029068e-04
C  27.747396  31.504980  32.768162  -1.73176421e-04  -2.97299102e-05   5.26758195e-05
C  28.402945  31.770418  31.901386  -4.14422597e-04   9.26382563e-06  -6.50475704e-06
C  26.958012  30.244186  32.380009   1.22020848e-03  -2.68946867e-04  -2.69709999e-04
C  26.238043  30.042784  33.118954  -2.43140443e-04   2.22699236e-04   5.22839800e-05
C  26.432049  30.361092  31.438499  -2.22474875e-04  -5.19425521e-06   1.41088676e-04
C  27.637901  29.428249  32.285549  -3.28821072e-04   1.38060132e-04  -1.70400690e-05
C  26.784086  32.665745  32.771069  -2.19026092e-03  -9.16255289e-04  -1.67170117e-04
C  26.443916  33.215553  33.841667   1.91774429e-03   2.97750521e-04  -1.58740883e-03
C  26.242390  32.929119  31.578037   1.68426300e-03   4.66925878e-04  -1.33054808e-03
C  26.521889  32.384342  30.762796  -6.23391825e-04  -2.10863829e-04   4.42101940e-04
C  25.101084  33.824303  31.418571   6.82087382e-04  -1.61323638e-04  -1.06598869e-04
C  24.204403  33.343933  31.734926  -2.56017112e-04   5.00514288e-05   9.01361345e-05
C  25.323404  34.860138  31.833187  -2.57222360e-04   4.06614738e-04  -3.44962427e-05
C  24.936563  33.954323  30.307039  -2.78733991e-04   3.66847700e-04   1.38565360e-04
44
44
C  32.851238  29.232887  33.747330  -1.97118366e-04   8.77902203e-05  -1.47810861e-04
C  33.428608  30.094320  33.984825   4.23699676e-04  -6.58847799e-04   5.88900584e-04
C  34.435364  29.870602  34.088013   4.35802620e-04   4.24069221e-05  -4.17308504e-04
C  33.166607  30.546680  34.931751  -3.96417920e-04   2.33552681e-04  -2.74170772e-04
C  33.246464  31.216780  32.955723  -6.66839420e-04   3.64498759e-04  -1.26972084e-03
C  33.972385  32.182743  32.902889  -1.31811644e-03  -1.67751772e-04   1.55394388e-04
C  32.295956  30.957727  32.069191   8.69528740e-04   1.29679334e-04  -3.78056720e-04
C  31.594463  30.233898  32.292900  -1.69518316e-04  -6.59994184e-05  -6.51056995e-04
C  31.899334  31.954697  31.045921   3.84071427e-06  -9.13722324e-05  -7.08059088e-05
C  32.798847  32.491730  30.654310   2.52806669e-04  -1.05878244e-04  -2.77526764e-04
C  31.097416  31.233215  29.891190  -2.60457600e-04   5.77497471e-04   3.38337733e-04
C  30.867451  31.890636  29.090654   7.32180924e-05  -1.31065186e-04  -3.45075416e-04
C  31.657555  30.460711  29.483948   1.55933794e-05  -7.87932149e-05  -2.38230699e-04
C  30.165598  30.832455  30.362223  -3.96112991e-05  -1.25575738e-04  -1.02715276e-04
C  30.968767  33.115479  31.630075  -1.19076506e-03  -9.75039264e-04  -1.71795394e-03
C  30.041225  33.588406  30.898794   1.00286736e-04  -6.53435360e-04   2.60613859e-04
C  31.077307  33.350822  32.948738  -7.02700170e-04   8.76410399e-04   7.98999274e-04
C  31.806049  32.803898  33.404800   2.62143643e-04  -6.19608210e-04  -4.02688282e-04
C  30.408644  34.355831  33.774284  -3.15546669e-04   4.31071763e-04   6.90343557e-04
C  30.352543  34.021812  34.779320   1.01592406e-04  -3.38313170e-04  -2.57326465e-04
C  30.922386  35.269791  33.833199   3.69626418e-04   2.06565863e-04  -4.82225121e-04
C  29.466911  34.564480  33.474213  -5.64734255e-05  -1.76177986e-04  -3.46770947e-04
C  30.627901  29.758484  35.941826  -3.21733794e-04   3.48965550e-05  -2.92894547e-04
C  29.964949  30.600477  35.843719   8.41575500e-04   9.23972693e-04   1.42610702e-03
C  30.384840  31.523411  36.217751  -1.79494047e-04  -3.49756767e-04  -3.37926700e-04
C  28.957954  30.497221  36.387779  -3.40867293e-04  -2.55866122e-04  -5.81689121e-04
C  29.577837  30.700411  34.386398  -6.55909651e-04  -1.19016762e-03  -1.38122041e-03
C  30.227926  30.116510  33.451454   8.26132949e-04  -1.25876174e-03   3.65304877e-04
C  28.548021  31.485228  34.112774   5.06721670e-04   1.67694408e-03   6.01436943e-04
C  28.200439  32.099728  34.891605  -4.56872309e-04  -1.27952104e-03  -2.11919134e-04
C  27.981276  31.604544  32.755665  -3.07243172e-05  -1.73353459e-04  -7.45815196e-05
C  28.775192  31.841137  32.020363  -1.20696372e-04  -2.77012994e-04  -1.11172987e-04
C  27.249319  30.290194  32.393772   4.51227941e-04  -1.64667377e-04   3.22506996e-04
C  26.223663  30.429850  32.879852   5.52249548e-05  -1.02147475e-04  -1.41181386e-04
C  26.934298  30.240681  31.340078  -2.17620636e-05  -4.46105114e-05  -3.59091355e-05
C  27.827925  29.435621  32.744717  -1.33025009e-04   7.18988231e-05  -5.57460480e-05
C  26.965326  32.741592  32.680271  -1.18723558e-03  -2.46738922e-03  -2.86129350e-03
C  26.370884  33.122757  33.710632   6.13476092e-04   2.15628883e-03   7.46047474e-04
C  26.592470  33.164322  31.467989   1.25908072e-03   7.57690752e-04  -1.18459375e-05
C  27.019958  32.822590  30.662542  -3.51873634e-04  -1.67755657e-04  -4.97003086e-04
C  25.426664  34.077454  31.335392   4.23412188e-04   4.88344813e-04   5.64583053e-04
C  24.642757  33.914341  32.097546  -2.13712876e-04  -3.66805820e-04  -6.77252538e-04
C  25.779215  35.086273  31.315136  -3.06438422e-04  -2.49570847e-04  -4.87180369e-04
C  24.882053  33.888191  30.410213  -1.22629805e-04   7.73201918e-06   6.33949749e-05
44
44
C  33.243366  29.017025  33.532799   8.39101092e-04  -6.78509241e-04  -7.60059338e-05
C  33.164021  29.908096  34.125095  -1.65071466e-03   1.83311105e-03   8.40735040e-04
C  34.023827  29.995192  34.813587   7.86666526e-04  -6.69084489e-04  -1.62647804e-04
C  32.244720  29.930603  34.697327   3.75048898e-04  -3.23977030e-04  -1.74633053e-04
C  33.034401  31.066336  33.151806   3.57802561e-03  -2.23177206e-03  -4.19298420e-04
C  33.829533  32.002617  33.208687  -4.61362675e-03   1.81988243e-03   3.93547933e-04
C  31.986010  30.993731  32.329720  -1.47006684e-03   1.72024698e-03   1.02457521e-03
C  31.387814  30.153149  32.386520   4.98666195e-04  -1.41680206e-03  -1.05513120e-03
C  31.782106  31.908888  31.256107   2.22390343e-04  -2.04638971e-04  -1.31162713e-04
C  32.697655  32.442238  31.055794   5.51566132e-04  -2.74039863e-04  -2.76688457e-04
C  31.361422  31.191376  29.964085  -3.41336417e-04   1.12164416e-03   5.42487949e-04
C  31.073559  31.930798  29.159895   2.21594426e-04  -1.93457803e-04  -3.16703634e-04
C  32.094990  30.585478  29.488764   2.58268847e-04  -2.72028381e-04  -2.14714586e-04
C  30.433029  30.590578  30.300169   6.84198167e-05  -3.63273313e-04  -2.40812646e-04
C  30.849592  33.057991  31.731977  -4.64090263e-05  -2.07468984e-03  -2.26298929e-03
C  29.776760  33.169174  31.218693  -9.65497165e-04   1.50684756e-03   4.15734743e-04
C  31.202223  33.764954  32.816635  -1.06588961e-03   1.04065205e-03   2.48537282e-04
C  32.090641  33.492104  33.169682   2.09989795e-03  -8.11481674e-04  -2.02878378e-04
C  30.432554  34.763874  33.469215  -6.49050271e-05   1.14526883e-04   7.61222473e-05
C  30.152727  34.433006  34.495041   5.02457042e-05  -3.87732405e-04   4.18976648e-04
C  30.944998  35.721088  33.428665   5.67629468e-04   2.98892264e-04  -8.51943332e-05
C  29.533827  35.011211  32.953728  -8.05668678e-05  -7.95603264e-05  -1.31792825e-04
C  30.140226  29.896435  36.516701   2.20079572e-04  -1.68194500e-04  -5.55774895e-05
C  29.687023  30.857063  36.138763   1.53585046e-04   1.94525957e-04  -4.32213274e-04
C  30.249573  31.782812  36.277145   1.24935395e-04  -2.68321128e-05   3.81154823e-04
C  28.785831  30.733835  36.687157  -2.11784019e-04   2.55884970e-06   3.58257967e-05
C  29.313705  30.733189  34.667019  -1.21662932e-04  -1.51147577e-03  -4.93844040e-04
C  29.988756  30.039696  33.933338   4.10923618e-04   3.19482130e-03   1.06006500e-03
C  28.160610  31.269268  34.265984   1.28722563e-03   2.32835137e-03   2.19261958e-04
C  27.563789  31.603172  34.977921  -2.88944371e-04  -8.86528636e-04   6.59732905e-05
C  27.614141  31.281282  32.902668  -7.65441873e-05  -2.33401763e-04  -2.84873477e-05
C  28.365162  31.243816  32.136379  -1.33709706e-04  -3.78231402e-04  -2.47249001e-04
C  26.622839  30.145184  32.778999   5.06159675e-04   7.05909450e-04   4.66199213e-04
C  25.666897  30.443678  33.260979  -5.43681090e-05  -1.66418002e-04  -1.44008867e-04
C  26.369965  29.928205  31.782785  -8.32421792e-05  -1.22417827e-04  -8.06153366e-06
C  27.052443  29.271393  33.183823  -1.37485695e-04  -1.98258742e-04  -1.11432542e-04
C  26.963531  32.712482  32.678787  -1.22018484e-03  -3.28687136e-03  -1.07910146e-03
C  26.464113  33.340038  33.692760   1.51162443e-03   1.09768426e-03  -1.76795479e-03
C  26.724300  33.073097  31.427858   9.02980857e-04   9.24726133e-04  -3.14871955e-04
C  27.130707  32.585598  30.621017  -6.53638621e-04  -1.03668321e-03  -1.05266424e-03
C  25.780298  34.141090  31.185051   7.31811975e-04  -3.79808771e-05   4.62769385e-04
C  24.935944  34.069069  31.853882  -7.07960513e-04  -1.56927112e-04  -3.32366297e-04
C  26.211311  35.178001  31.253626  -3.76065611e-04   2.28774094e-04  -4.22281242e-04
C  25.299240  34.004936  30.182316  -3.56234581e-04   6.55967524e-05  -2.67687603e-04
