44
44
C  34.611355  29.306915  32.962006   4.30179909e-02  -1.60522476e-01   5.75543903e-02
C  34.388237  30.205368  33.475365   2.80004852e-02   4.14196283e-01  -4.03180689e-01
C  35.234592  30.350025  34.157017  -4.54763845e-02  -1.64061740e-01   1.53448984e-01
C  33.472561  30.006927  34.072697   6.65504336e-02  -4.37534042e-02   1.58215955e-01
C  34.171150  31.377777  32.583542  -6.34503365e-01  -5.64224184e-01   5.95450282e-01
C  35.046505  32.221569  32.354156   1.50255251e+00   3.58035892e-01  -7.29824305e-01
C  32.898045  31.618601  32.214218   5.86071126e-02   1.39318794e-01  -2.12988183e-01
C  32.221771  30.980272  32.630089   1.10035323e-01   4.38634045e-02   1.54461414e-01
C  32.437984  32.745010  31.379221   1.01975081e-02  -1.78962685e-02   6.46755053e-03
C  33.370377  33.283043  31.036448  -9.64924227e-03   2.10399181e-02  -2.00057030e-02
C  31.828051  32.115360  30.178419  -4.98254672e-02   1.48475215e-01   9.64141712e-02
C  31.668272  32.901737  29.455408   5.10347448e-02  -7.45801851e-02  -6.71619698e-02
C  32.584614  31.489059  29.692598   1.05777010e-02  -3.44618373e-02  -4.98834997e-02
C  30.931124  31.593918  30.497087  -1.70976948e-02  -4.18877155e-02  -2.59975586e-02
C  31.511280  33.613514  32.168495   6.14959240e-01  -5.83326697e-01   7.53686666e-01
C  30.463320  34.042786  31.657347  -4.97694880e-01   1.69258332e+00  -1.28542352e+00
C  31.960453  34.050312  33.363556  -3.91691476e-01   1.14132662e-03  -6.13110602e-01
C  32.765862  33.579720  33.758995   8.44222233e-02   4.32650968e-02   4.57556874e-01
C  31.125355  34.817009  34.283875  -2.28317991e-01  -3.77689600e-02  -2.17329368e-01
C  30.244383  34.266655  34.473476   2.18817502e-01  -1.09152040e-02   9.40141603e-02
C  31.677183  35.079384  35.199032   1.31331071e-01   2.62615457e-02   1.41857967e-01
C  30.772409  35.739914  33.791836   1.46868855e-01   7.87950084e-02   1.56882778e-01
C  31.369606  29.448217  35.936474   5.71277402e-02  -2.52288543e-02   2.36209005e-01
C  30.634903  30.273409  35.898575  -1.03001714e-01   7.07019567e-02  -6.74344838e-01
C  31.196169  31.103313  36.279007   6.47039488e-02  -1.52826738e-02   1.80597723e-01
C  29.759350  29.995531  36.434097  -2.78568314e-03  -6.35607168e-02   1.90860137e-01
C  30.178928  30.511459  34.455074  -3.16859782e-02   1.39013469e-01   8.80228281e-01
C  30.667946  29.903637  33.533794   1.42527461e-01  -1.32176566e+00  -8.11875165e-01
C  29.118954  31.287962  34.324238  -1.10576890e-01   4.94884789e-01  -2.43822619e-01
C  28.722668  31.814573  35.056618   3.75974447e-01  -7.01126575e-01   1.92477554e-01
C  28.379269  31.525974  33.071033  -1.52497701e-02  -4.20502573e-02  -1.85852554e-02
C  29.150867  31.436737  32.274452  -5.91125116e-02  -5.84105514e-02  -3.47605981e-02
C  27.368338  30.402878  32.916843   1.79885104e-01   1.96823820e-01   8.49862546e-02
C  26.719986  30.464869  33.785603  -4.29367237e-02  -1.02647662e-01  -1.88741777e-02
C  26.837915  30.534163  32.033943  -6.28069416e-02  -4.54264954e-02  -5.70718125e-02
C  27.905521  29.432116  32.683113  -9.81024504e-02  -3.92644368e-02  -8.38335697e-03
C  27.666231  32.888412  33.116177  -2.20827565e-01  -1.01816916e+00  -1.13840842e+00
C  27.572588  33.488758  34.208714  -6.74718380e-01   1.59369397e+00   3.12825608e+00
C  27.134617  33.177071  31.916063   6.00557685e-01   5.18378675e-01   6.44094944e-01
C  27.283943  32.596973  31.119379  -3.98867249e-01  -3.66404325e-01  -4.38448966e-01
C  26.051207  34.184563  31.804527   2.46908069e-01   5.60463183e-02   2.57038265e-01
C  25.164841  33.699181  32.295712  -1.49683997e-01  -5.26896380e-02  -1.70156866e-01
C  26.302990  35.106838  32.317333  -1.59145951e-01   4.57922742e-02  -1.76327586e-01
C  25.865431  34.474899  30.743719  -1.53825507e-01  -2.20090896e-02  -1.41310319e-01
44
44
C  34.519772  29.710672  32.786457   6.55828193e-02  -2.05149055e-01   3.52891982e-02
C  34.432537  30.606665  33.464550  -2.20780857e-02   5.60180724e-01  -3.61740738e-01
C  35.409164  30.765524  33.895000  -1.06603950e-02  -2.35051334e-01   1.17903121e-01
C  33.579876  30.340212  34.153095   7.18796402e-02  -8.36686492e-02   1.72098100e-01
C  34.035011  31.834730  32.626827  -6.23984456e-01  -7.38345683e-01   5.05082369e-01
C  34.819115  32.747738  32.396732   1.64486825e+00   1.22820628e+00  -3.76749873e-01
C  32.864613  31.708708  31.960659   3.83386984e-02   6.37811571e-02  -7.21109658e-02
C  32.345230  31.007215  32.381504   3.19211274e-01   2.47382745e-01   4.53878082e-02
C  32.140335  32.772678  31.233099   9.96945775e-04  -2.08134600e-03  -1.39819982e-03
C  32.861454  33.556068  30.919189  -3.19166481e-02   4.19772193e-02  -3.35766375e-02
C  31.602121  32.320408  29.873659  -3.05652730e-02   1.03483699e-01   1.60661548e-01
C  31.441561  33.150032  29.276114   5.12666628e-02  -5.65581694e-02  -8.59547034e-02
C  32.356144  31.718584  29.365536  -5.97681338e-03  -2.38586143e-02  -5.99423945e-02
C  30.692650  31.728725  29.962831  -2.43663564e-02  -3.18825953e-02  -5.92248887e-02
C  31.051878  33.492611  32.137634   3.01044554e-01  -5.04315235e-02   6.14762008e-01
C  29.936899  33.676620  31.629217  -9.70576778e-02   8.33111942e-01  -8.75830054e-01
C  31.430639  33.936440  33.337540  -2.02132761e-01  -2.43634224e-01  -4.84992802e-01
C  32.406853  33.755756  33.571331  -8.72236118e-02   1.92618012e-01   4.06607926e-01
C  30.703484  34.734402  34.313969  -1.92106485e-01  -9.36432406e-02  -1.36659548e-01
C  29.822374  34.180805  34.555458   1.86476052e-01   1.15348827e-02   4.45109345e-02
C  31.241238  34.994484  35.143234   1.29930824e-01   5.53085059e-02   1.04393572e-01
C  30.384014  35.665592  33.783291   1.22959018e-01   1.08391121e-01   6.63938895e-02
C  31.117329  29.412466  35.946400   3.08462735e-02  -9.06051546e-02   2.84166783e-01
C  30.438364  30.270565  36.035706  -6.99328212e-03   1.65274948e-01  -8.18472862e-01
C  30.958309  31.070551  36.495373   4.36610542e-02  -2.45459322e-02   2.03591540e-01
C  29.578131  30.038677  36.670536  -2.84308661e-02  -9.50746760e-02   1.96756080e-01
C  30.037218  30.769510  34.657742  -2.69649446e-01   3.17015946e-01   1.44210947e+00
C  30.736671  30.500669  33.681751   7.77126029e-02  -2.15266347e+00  -1.78007436e+00
C  28.882713  31.379580  34.652325   4.02315669e-02   4.02188003e-01  -4.43672508e-01
C  28.311552  31.408794  35.470387   1.15868337e-01  -5.93833566e-01   3.57927799e-01
C  28.074598  31.595781  33.424641  -2.36203019e-02  -3.58429700e-02  -8.68654158e-03
C  28.804977  31.760113  32.670403  -8.11308697e-02  -2.68583000e-02  -1.61452051e-02
C  27.218760  30.373446  33.042629   2.53173769e-01   2.12725133e-01   5.25054075e-02
C  26.282663  30.393381  33.641029  -6.31855503e-02  -9.33881775e-02  -1.66999847e-02
C  26.935192  30.440145  31.992052  -8.63133892e-02  -5.72973713e-02  -4.74663749e-02
C  27.730770  29.444288  33.287399  -1.23667873e-01  -7.66400620e-02   1.70727707e-02
C  27.281534  32.908421  33.385574  -9.82736796e-02  -8.68509948e-01  -1.07580042e+00
C  27.205206  33.566929  34.459656  -9.73413169e-01   1.27033889e+00   2.73722649e+00
C  26.694378  33.283806  32.261406   4.96126026e-01   3.85284692e-01   6.10355496e-01
C  26.832827  32.695312  31.393429  -3.97822350e-01  -2.95459986e-01  -3.48477751e-01
C  25.930462  34.508759  32.209560   2.08251581e-01  -6.49082847e-03   2.47622907e-01
C  24.994719  34.547226  32.766529  -1.48483530e-01   1.14487689e-02  -1.82863578e-01
C  26.548901  35.368279  32.544064  -1.24959178e-01   9.01903436e-02  -1.41899139e-01
C  25.671568  34.702007  31.194336  -1.36593536e-01   9.69655532e-03  -1.33725286e-01
44
44
C  34.387009  29.865429  33.182590   2.20274199e-02  -1.63559973e-01   1.06101520e-01
C  34.476067  30.903057  33.567356   1.37805641e-01   4.76870418e-01  -6.11381173e-01
C  35.510937  30.928202  33.843235  -2.18906496e-02  -1.92933023e-01   2.03727230e-01
C  33.896732  31.124754  34.478256  -2.25348286e-02  -5.43280393e-02   1.97053656e-01
C  34.110798  31.936171  32.531395  -9.76367712e-01  -7.17289329e-01   1.12912333e+00
C  34.904339  32.728485  32.058651   1.87831509e+00   6.59388304e-01  -1.26506400e+00
C  32.842731  31.989891  32.202793   2.62903869e-01   2.14134395e-01  -4.04747665e-01
C  32.239830  31.227571  32.649231   5.74637651e-02  -5.33270352e-02   2.36005440e-01
C  32.249153  33.000004  31.265434  -1.25102536e-03  -1.17038218e-02   1.51845450e-02
C  33.103970  33.625172  30.972795  -7.27433637e-02   5.15993573e-02  -1.78387458e-03
C  31.713718  32.192909  30.057226  -8.01493600e-03   1.72529131e-01   8.99711400e-02
C  31.463896  32.851833  29.236248   3.64870243e-02  -7.30805472e-02  -6.64793551e-02
C  32.408653  31.396965  29.712914  -1.56800859e-02  -6.09583221e-02  -4.60017994e-02
C  30.815311  31.654388  30.282272  -1.03829317e-02  -5.52875176e-02  -3.21994573e-02
C  31.111330  33.803711  31.934263   7.01585829e-01  -4.50777590e-01   9.94631171e-01
C  30.028084  33.948021  31.416491  -4.10063535e-01   1.62030625e+00  -1.50827050e+00
C  31.356953  34.158421  33.205822  -4.45615590e-01  -1.33468851e-01  -6.55304492e-01
C  32.243046  33.938164  33.525677   1.34142309e-01   1.75002858e-01   4.98662859e-01
C  30.474062  34.821091  34.157665  -2.68178254e-01  -7.68329725e-02  -1.66511446e-01
C  29.800806  34.144016  34.640732   2.41257519e-01  -9.20092687e-03   5.88472076e-02
C  31.095831  35.123051  34.943279   1.80818513e-01   5.35528362e-02   1.15811422e-01
C  30.026894  35.757847  33.820030   1.63574725e-01   1.18673846e-01   1.01478063e-01
C  31.086094  29.472130  35.962166   5.04968055e-02  -4.43008095e-02   1.96191788e-01
C  30.772078  30.527777  35.972519  -1.86481461e-01   1.34323686e-01  -5.89305341e-01
C  31.728724  31.105047  36.153996   7.16855004e-02  -9.69415903e-03   1.68771699e-01
C  30.050177  30.514687  36.787487   4.39284369e-02  -6.61742538e-02   1.72647297e-01
C  30.144285  30.903124  34.632313   2.46769667e-01  -1.79978848e-01   8.36501062e-01
C  30.586430  30.229383  33.695580  -2.92697586e-02  -6.34863257e-01  -9.73385096e-01
C  28.993212  31.579353  34.513691  -3.65360439e-01   5.46599805e-01  -2.61216372e-01
C  28.591177  31.849785  35.419155   5.03702998e-01  -6.55401886e-01   2.60565400e-01
C  28.224854  31.866116  33.289402   7.07264431e-03  -4.45358381e-02  -1.48344124e-02
C  28.973753  31.866415  32.442303  -1.77209415e-02  -7.35821426e-02  -5.02616400e-03
C  27.283808  30.703987  32.868034   1.07137039e-01   1.90972045e-01   7.95015395e-02
C  26.459332  30.617956  33.543816  -4.01657857e-02  -9.09527764e-02  -2.79565975e-02
C  27.045454  30.722879  31.766207  -5.01129255e-02  -4.04327698e-02  -4.17857096e-02
C  27.836102  29.772053  33.024597  -4.68080528e-02  -3.79653648e-02   8.10535345e-03
C  27.504801  33.223534  33.456738   4.13052797e-01  -7.93832421e-01  -1.31549728e+00
C  27.284077  33.709610  34.566799  -1.96398330e+00   1.08103073e+00   3.23185849e+00
C  27.037239  33.698528  32.312515   4.51575965e-01   3.04078519e-01   5.99890351e-01
C  27.254333  33.183918  31.447653  -4.20821607e-01  -3.22853774e-01  -2.67789632e-01
C  26.063517  34.782757  32.236313   2.38422588e-01  -5.64575195e-02   2.71848619e-01
C  25.102671  34.536293  32.744331  -1.85659245e-01   2.76460219e-02  -2.24622026e-01
C  26.531183  35.737507  32.625130  -1.26912534e-01   1.39329433e-01  -1.46890834e-01
C  25.798790  34.996494  31.163483  -1.69920415e-01   2.95532737e-02  -1.37786284e-01
44
44
C  33.644218  29.938616  33.758453   8.85360241e-02  -6.37981743e-02   1.77016795e-01
C  34.478306  30.605328  33.578876  -8.25924799e-03   2.15851620e-01  -6.41842246e-01
C  35.425468  30.054920  33.429115   5.45849418e-03  -1.29563987e-01   1.94868639e-01
C  34.768497  31.194248  34.398212  -2.03705039e-02  -8.10972042e-03   2.01554269e-01
C  34.116379  31.386097  32.282501  -4.94813234e-01  -2.76292741e-01   1.06650591e+00
C  34.983624  31.858471  31.576786   1.64258277e+00   3.30338240e-01  -1.62641680e+00
C  32.779415  31.633001  32.226524  -9.18676928e-02  -5.39506823e-02  -4.19477999e-01
C  32.239902  31.094986  32.828979   2.58415818e-01   1.69558451e-01   2.94062704e-01
C  32.312218  32.558002  31.297054   1.27532370e-02  -3.03668226e-03   1.86666530e-02
C  33.025555  33.342880  30.947256   1.35952495e-02   5.91638349e-02   3.65584902e-02
C  31.827578  31.847626  29.981833  -3.98851931e-04   1.09916940e-01   8.69776458e-02
C  31.498621  32.657219  29.215542   3.33178304e-02  -5.50813638e-02  -6.31430820e-02
C  32.537392  31.197172  29.467945  -3.46868485e-02  -4.10258733e-02  -3.80824246e-02
C  30.930405  31.225574  30.261963  -1.10885650e-02  -3.55946906e-02  -4.34439816e-02
C  31.374079  33.492432  31.976059   9.61218953e-01  -4.19304729e-01   8.59201610e-01
C  30.306927  33.834751  31.451752  -1.03300142e+00   1.95297360e+00  -1.26682818e+00
C  31.572449  33.740578  33.237679  -6.69464707e-01  -8.67012814e-02  -6.73112094e-01
C  32.460625  33.424595  33.650539   3.43905658e-01   1.86314508e-01   4.69434947e-01
C  30.725937  34.548325  34.102150  -3.07891846e-01  -5.74711040e-02  -2.17258960e-01
C  29.902866  33.988384  34.499874   2.60361314e-01  -5.88128902e-03   7.74033591e-02
C  31.250418  34.938850  34.966393   1.93998992e-01   4.58110794e-02   1.26793906e-01
C  30.303356  35.421631  33.513954   1.87677607e-01   9.77997556e-02   1.95713833e-01
C  31.185408  29.696495  35.994099   5.23932017e-02  -6.67197332e-02   2.42847726e-01
C  30.434977  30.451548  35.905254  -1.62362561e-01   2.20072776e-01  -7.79138386e-01
C  30.951479  31.339352  36.284184   9.11044702e-02  -3.84356789e-02   2.09555477e-01
C  29.608618  30.116264  36.533363   9.83468536e-03  -1.14059597e-01   2.21924320e-01
C  30.004766  30.715630  34.494419   7.65760615e-02   1.51057635e-02   1.24620831e+00
C  30.599947  30.370401  33.533318  -7.57647231e-02  -1.57949209e+00  -1.41549063e+00
C  28.887615  31.406981  34.365677  -2.54460543e-01   6.41949654e-01  -2.81746775e-01
C  28.347006  31.731256  35.177727   5.72267652e-01  -9.67047632e-01   1.59559160e-01
C  28.193920  31.605375  33.141777  -1.29232584e-02  -4.81857993e-02  -1.80951599e-02
C  28.886189  31.627428  32.281433  -6.09375872e-02  -6.76981211e-02  -2.58074682e-02
C  27.246006  30.422739  33.019348   2.16842026e-01   2.74748445e-01   6.59858286e-02
C  26.411573  30.456242  33.697086  -6.18639141e-02  -1.32959366e-01  -2.26364955e-02
C  26.743872  30.474836  32.056164  -8.15201849e-02  -6.54755384e-02  -4.51484211e-02
C  27.774218  29.445946  33.129883  -1.12343200e-01  -7.74789974e-02   2.04880461e-02
C  27.390135  32.952522  33.310139  -2.08329614e-02  -9.44878280e-01  -1.52935159e+00
C  27.281170  33.431545  34.429081  -1.58094490e+00   1.15363610e+00   4.02973938e+00
C  26.651711  33.438774  32.254753   7.31495440e-01   3.05024981e-01   8.07433903e-01
C  26.786207  33.091785  31.315777  -5.79114258e-01  -2.87955344e-01  -4.18651581e-01
C  25.680313  34.536102  32.447979   2.90630132e-01  -9.83712599e-02   3.31497729e-01
C  24.790220  34.205170  32.843124  -2.18996301e-01   3.84297185e-02  -2.14437038e-01
C  26.174629  35.245152  33.190788  -1.67136461e-01   1.90491989e-01  -2.62464494e-01
C  25.557409  35.114120  31.495316  -1.66085124e-01   8.51968154e-02  -1.58419713e-01
44
44
C  33.689388  29.523289  33.894596   9.01892688e-03  -7.40048885e-02   1.54314637e-01
C  34.460918  30.288561  33.652153   1.74683169e-01   2.94111997e-01  -5.78661382e-01
C  35.430485  29.781364  33.457775  -3.81253473e-02  -1.52140722e-01   1.73878506e-01
C  34.557106  30.893120  34.484543  -7.35551044e-02  -2.56238766e-02   1.97148234e-01
C  34.150864  31.268356  32.466022  -7.49133527e-01  -4.41148549e-01   9.20967877e-01
C  35.074520  31.745144  31.815968   1.83263171e+00   8.52662325e-01  -9.19982970e-01
C  32.858814  31.492205  32.258751   5.94212338e-02   6.30411431e-02  -5.06982684e-01
C  32.184635  30.914791  32.750786   1.01595514e-01   4.95206937e-03   3.58376771e-01
C  32.324764  32.456089  31.348564   1.60570163e-02  -6.14961516e-03   3.23191062e-02
C  33.105446  33.186440  31.229479  -4.22635488e-03   5.91336377e-02   6.64580539e-02
C  32.107925  31.797653  29.982880  -8.36371034e-02   1.25085324e-01   3.66644515e-03
C  31.742193  32.653004  29.374674   9.06842574e-02  -5.66223934e-02  -3.57455760e-02
C  33.088318  31.361750  29.546455  -2.19336487e-02  -3.43921892e-02  -1.48646189e-02
C  31.266680  31.082834  30.102306   1.76975299e-02  -5.85442372e-02  -7.08259363e-03
C  31.189068  33.226013  32.003986   8.50921452e-01  -3.90145004e-01   1.18773484e+00
C  30.182112  33.487534  31.304001  -7.70083547e-01   1.76942754e+00  -1.82144952e+00
C  31.439386  33.687607  33.274216  -5.95277667e-01  -1.26140788e-01  -7.77209401e-01
C  32.272362  33.529373  33.705738   3.18506658e-01   2.03568697e-01   5.38130045e-01
C  30.523090  34.514389  33.919075  -2.83648849e-01  -6.05334714e-02  -2.34135047e-01
C  29.928278  33.961700  34.682568   2.45168999e-01  -1.02253919e-02   1.19015343e-01
C  31.069016  35.375870  34.443550   1.83696717e-01   6.35457262e-02   1.27249196e-01
C  29.797554  34.963524  33.243816   1.59287795e-01   7.43280575e-02   1.91467524e-01
C  31.144308  29.425446  35.877098   2.88063809e-02  -4.52331416e-02   1.70555770e-01
C  30.543535  30.319462  35.943539  -1.18418328e-01   1.41395628e-01  -5.69139779e-01
C  31.192741  31.159220  36.221294   5.93120046e-02  -4.95254854e-03   1.68402657e-01
C  29.839956  30.145517  36.800011   1.48014799e-02  -5.14280871e-02   1.65284604e-01
C  29.830221  30.489607  34.603413   1.47393465e-01  -3.44089419e-01   9.16093886e-01
C  30.364687  29.924810  33.641678   4.18679826e-02  -2.01709643e-01  -1.13385940e+00
C  28.787699  31.303043  34.558514  -3.44831079e-01   6.51950181e-01  -3.84753168e-01
C  28.554167  31.770493  35.434345   5.44277251e-01  -6.63931012e-01   3.89828861e-01
C  28.110441  31.607513  33.280182   1.42669934e-03  -5.19156456e-02  -3.48408101e-03
C  28.885445  31.793306  32.521973  -2.16832235e-02  -9.58951563e-02   3.71164419e-02
C  27.316410  30.398634  32.774479   1.64259225e-01   2.08571017e-01   1.47251692e-02
C  26.515293  30.216129  33.465992  -5.08093089e-02  -9.67901349e-02  -7.63976667e-03
C  26.853905  30.662918  31.781914  -7.89942220e-02  -5.16957417e-02  -3.36338431e-02
C  27.943619  29.527054  32.639286  -7.26418793e-02  -3.77539322e-02   2.51632351e-02
C  27.271940  32.862244  33.392235   1.98187545e-01  -9.85778034e-01  -1.24111247e+00
C  27.118446  33.506104  34.377144  -1.47647810e+00   1.03544581e+00   3.25995398e+00
C  26.809454  33.363800  32.242386   6.44747198e-01   3.75969619e-01   5.62554359e-01
C  26.963379  32.841351  31.368881  -5.59317112e-01  -3.55683923e-01  -2.83418506e-01
C  25.748384  34.367275  32.163048   2.65824080e-01  -3.10597755e-02   2.81179368e-01
C  24.798908  33.839268  32.137058  -1.80636019e-01  -2.13562120e-02  -1.80638745e-01
C  25.663349  35.113220  33.021908  -1.50641486e-01   1.13353632e-01  -2.27610260e-01
C  25.818190  34.829414  31.174585  -1.80448323e-01   4.50483933e-02  -1.49938792e-01
44
44
C  33.584450  29.405207  33.459846   5.63524403e-02  -1.13639534e-01   1.43895149e-01
C  34.512634  29.978899  33.267803   9.37661082e-02   5.29479384e-01  -5.14645875e-01
C  35.267918  29.441189  32.753780  -1.15332194e-02  -2.30320290e-01   1.25803530e-01
C  34.964344  30.205366  34.219135  -4.40070257e-02  -1.39075592e-01   1.87383279e-01
C  34.230694  31.236515  32.504257  -7.56690621e-01  -7.59366214e-01   9.35826302e-01
C  35.111485  31.963381  32.074406   1.86454558e+00   1.00491762e+00  -1.14582634e+00
C  32.945080  31.459406  32.250122   7.69562945e-02   2.61357784e-01  -4.64379430e-01
C  32.332809  30.760218  32.554016   1.25575140e-01  -8.33508521e-02   2.72369772e-01
C  32.311935  32.510777  31.483389   2.26942580e-02  -2.58149002e-02   3.29336673e-02
C  33.096313  33.271103  31.387003   1.34613840e-02   2.92131454e-02   6.60001561e-02
C  31.954502  31.924295  30.071503  -1.33726791e-01   2.66082495e-01   4.73149121e-02
C  31.811216  32.764030  29.335726   1.12416551e-01  -9.68380794e-02  -7.53795132e-02
C  32.771221  31.349606  29.641743   3.04078043e-04  -6.72980994e-02  -3.63311358e-02
C  31.103090  31.187883  30.151836   1.36143928e-02  -9.46224034e-02  -1.48782153e-02
C  31.053307  33.136940  32.072777   9.38560903e-01  -9.82236445e-01   1.42485976e+00
C  30.087650  33.350357  31.344791  -3.91724914e-01   2.80843139e+00  -2.01663375e+00
C  31.108288  33.533985  33.361103  -6.13162279e-01   1.02339596e-01  -9.53919172e-01
C  31.984259  33.439152  33.906361   3.23546469e-01   6.98963702e-02   6.28117681e-01
C  30.019819  34.239220  34.037758  -2.93212712e-01  -3.13436761e-02  -2.76819199e-01
C  29.666502  33.600792  34.858036   2.86083311e-01  -3.14214639e-02   1.38205439e-01
C  30.448610  35.103088  34.449097   1.83860853e-01   8.54334235e-02   1.74489960e-01
C  29.305260  34.587120  33.268925   9.78340283e-02   3.27954479e-02   2.34666571e-01
C  30.569969  29.524511  36.091297   6.19389862e-03  -7.84436762e-02   1.93645909e-01
C  30.749184  30.565748  35.848850  -1.55877978e-01   1.75202191e-01  -6.55717432e-01
C  31.800266  30.755396  35.731800   5.79595752e-02  -1.29743479e-02   1.83776751e-01
C  30.219299  31.173201  36.546112   5.76131791e-02  -5.99830188e-02   2.24502653e-01
C  30.116022  30.701855  34.554436   2.55956024e-01  -3.48570377e-01   1.04019344e+00
C  30.700741  30.327581  33.564617  -1.36496738e-01  -3.28559011e-01  -1.00957704e+00
C  28.826181  31.141203  34.486656  -3.66060674e-01   7.58370757e-01  -4.07444715e-01
C  28.408150  31.379564  35.372662   5.38332939e-01  -8.37595284e-01   4.25774992e-01
C  28.004366  31.277395  33.292278  -8.12203565e-04  -6.43015653e-02  -8.96211527e-03
C  28.664827  31.244101  32.412724  -4.41696085e-02  -1.15755044e-01   3.74067016e-03
C  27.080183  30.079786  33.150600   1.40553564e-01   3.09150577e-01   3.47433351e-02
C  26.082495  30.166637  33.689480  -5.61981238e-02  -1.25882730e-01  -2.57815029e-02
C  26.761831  29.976654  32.063263  -6.65509030e-02  -7.99601823e-02  -2.66644470e-02
C  27.584679  29.171747  33.510529  -4.90628220e-02  -8.51884261e-02   3.07610333e-02
C  27.216084  32.627224  33.334106   1.68633103e-01  -1.24208355e+00  -1.45246065e+00
C  26.933516  33.214115  34.389084  -1.80306482e+00   1.68750513e+00   4.56550360e+00
C  26.851706  33.175507  32.156200   6.02778256e-01   4.26931381e-01   6.46816313e-01
C  27.118792  32.761040  31.300932  -5.38307011e-01  -3.91984612e-01  -2.96294302e-01
C  25.796316  34.208801  32.111229   2.53664047e-01  -5.62420301e-02   3.25785398e-01
C  24.769075  33.876831  32.380802  -1.77991450e-01   9.91119631e-03  -2.17148945e-01
C  26.126499  34.986824  32.778355  -1.33465737e-01   1.54051334e-01  -2.55271405e-01
C  25.897106  34.735249  31.171234  -1.80615470e-01   8.07899162e-02  -1.67971075e-01
44
44
C  33.660522  29.389566  33.934608   6.64990162e-03  -1.05506934e-01   1.25034422e-01
C  34.504040  29.846468  33.481525   1.83537632e-01   5.44577062e-01  -3.90127003e-01
C  35.004429  29.176823  32.834221  -2.64983028e-02  -2.12654218e-01   6.88880011e-02
C  35.171474  30.094421  34.316532  -7.10867122e-02  -1.85245633e-01   1.58390313e-01
C  34.119617  31.119396  32.707222  -8.28832269e-01  -7.26670206e-01   5.44904947e-01
C  34.969940  31.900213  32.392387   1.81651962e+00   8.83680344e-01  -3.43513250e-01
C  32.811306  31.352686  32.340500   9.11921784e-02   2.50658333e-01  -2.68156558e-01
C  32.135887  30.751432  32.709198   1.05044290e-01  -8.04674849e-02   1.99680328e-01
C  32.339878  32.357399  31.413986   1.32295135e-02  -2.44023055e-02   1.09579768e-02
C  33.203949  33.065048  31.225910  -6.33899402e-03   1.07531901e-02  -3.06806341e-03
C  31.999054  31.671053  30.058603  -6.29478171e-02   1.84304073e-01   7.62326419e-02
C  31.248739  32.237804  29.559032   4.54066992e-02  -1.00354493e-01  -5.20275533e-02
C  32.903530  31.436533  29.519934   2.54622800e-03  -4.74213250e-02  -2.91334279e-02
C  31.546318  30.722733  30.307104   9.43575520e-03  -5.30525558e-02  -2.69897860e-02
C  31.278730  33.248993  32.037647   8.41159046e-01  -8.29640269e-01   9.65169966e-01
C  30.270924  33.573250  31.462130  -7.66516030e-01   2.38047838e+00  -1.55516696e+00
C  31.527145  33.661343  33.257454  -4.92776096e-01   7.93406889e-02  -7.87367284e-01
C  32.389381  33.320580  33.648315   1.37719527e-01   4.64727208e-02   5.28356791e-01
C  30.641600  34.438942  34.083298  -2.39833847e-01  -3.20792720e-02  -2.86331415e-01
C  29.813629  33.792439  34.342522   2.08430752e-01  -2.46581305e-02   1.28190219e-01
C  31.227865  34.670586  34.887981   1.44070640e-01   2.59387121e-02   1.79318264e-01
C  30.147503  35.349854  33.664944   1.42994732e-01   1.00697465e-01   2.13845700e-01
C  30.089651  29.931444  36.525589   1.11131379e-02  -6.86568692e-02   1.77845821e-01
C  30.702066  30.585541  35.836628  -1.61739215e-01   1.51532188e-01  -6.02572501e-01
C  31.718260  30.201454  35.701283   4.14402224e-02  -3.01901177e-02   1.70959055e-01
C  30.781338  31.623114  36.192608   8.02237391e-02  -2.18518451e-02   1.93678707e-01
C  29.946512  30.534317  34.502983   2.20925212e-01  -2.72384942e-01   9.44146276e-01
C  30.548660  30.143566  33.530140  -2.40342513e-01  -4.58248645e-01  -9.19477344e-01
C  28.745220  31.055347  34.478645  -3.16246033e-01   6.73322797e-01  -3.50505710e-01
C  28.378166  31.479540  35.325794   5.68163514e-01  -7.85862565e-01   3.44625026e-01
C  28.015844  31.300367  33.250042  -1.00524235e-03  -5.41427769e-02  -1.24681201e-02
C  28.695017  31.353916  32.295990  -3.75312380e-02  -9.01595876e-02  -1.70211382e-02
C  27.276705  30.012611  33.063061   1.62858516e-01   2.47175619e-01   1.73148140e-02
C  26.641626  30.001450  33.941631  -4.22794931e-02  -1.21558681e-01   1.49750116e-03
C  26.646109  30.032715  32.066364  -6.39684871e-02  -6.61200061e-02  -2.76458766e-02
C  27.897215  29.128073  32.985386  -9.84746441e-02  -5.56799248e-02   2.32574716e-02
C  27.079948  32.528759  33.320576   8.44727010e-02  -1.14970970e+00  -1.44702888e+00
C  26.912367  33.156380  34.343235  -1.26411021e+00   1.49134529e+00   3.97447157e+00
C  26.482128  32.988884  32.175541   4.77991790e-01   3.75941426e-01   7.49695241e-01
C  26.778572  32.600040  31.329556  -3.75124365e-01  -3.01907927e-01  -3.75981480e-01
C  25.494436  34.050728  32.123940   2.15411857e-01  -3.16202007e-02   3.03440422e-01
C  24.524843  33.697193  32.516087  -1.59838140e-01   6.21029362e-03  -1.90458193e-01
C  25.920319  34.827354  32.750645  -1.30843014e-01   1.05611421e-01  -2.36822456e-01
C  25.445745  34.246094  31.042673  -1.36314020e-01   2.58918256e-02  -1.50365531e-01
44
44
C  33.750782  29.645021  33.823662  -1.44864339e-02  -1.29291654e-01   9.14653167e-02
C  34.659084  30.110325  33.405708   1.87459141e-01   6.59605384e-01  -2.78943360e-01
C  35.221684  29.399475  32.800522  -1.41283805e-02  -2.08388492e-01   3.47466320e-02
C  35.317265  30.454702  34.184219  -6.82336390e-02  -2.39364624e-01   1.31601304e-01
C  34.251812  31.230976  32.539272  -8.52585614e-01  -1.18094349e+00   3.49381536e-01
C  34.952724  32.216454  32.391682   1.92746222e+00   1.67637396e+00  -2.18508899e-01
C  33.059391  31.165245  31.988945   2.22740814e-01   4.56171691e-01  -1.21980406e-01
C  32.402081  30.356747  32.080616   7.01609775e-02  -2.17504591e-01   5.65681420e-02
C  32.536274  32.278053  31.157930  -6.96695643e-03  -2.37713065e-02   9.66754218e-04
C  33.279072  32.978695  31.005508  -8.47433433e-02  -5.24211908e-03  -3.59219983e-02
C  32.028774  31.735811  29.810299  -3.52448076e-02   1.63568288e-01   7.06983432e-02
C  31.643465  32.608994  29.252541   3.86521034e-02  -5.92580214e-02  -5.06143011e-02
C  32.882481  31.447151  29.238897   3.66356643e-03  -4.67725545e-02  -2.64615696e-02
C  31.346653  30.847239  29.998980   5.24760457e-03  -5.12793548e-02  -1.77699123e-02
C  31.428478  32.973545  31.973972   3.82038146e-01  -4.75360751e-01   6.26738310e-01
C  30.317877  33.124996  31.468018  -4.66384739e-01   1.34871006e+00  -8.59034657e-01
C  31.680784  33.428047  33.207874  -1.57097965e-01  -1.16298934e-02  -6.03051901e-01
C  32.597336  33.249207  33.546837  -1.46456763e-01   6.16409145e-02   4.62443948e-01
C  30.684122  34.085274  34.114887  -1.44086972e-01  -3.72272581e-02  -2.20894530e-01
C  29.887461  33.428589  34.431061   1.31837919e-01  -3.82974558e-03   1.07957192e-01
C  31.289808  34.282314  35.047337   9.78883579e-02   2.58421730e-02   1.51219383e-01
C  30.364902  35.015366  33.639961   9.26549956e-02   7.22649023e-02   1.62148565e-01
C  30.134720  29.902281  36.670006   4.78409342e-02  -5.84924743e-02   1.24432757e-01
C  30.789511  30.390568  35.907436  -1.83953360e-01   1.31394252e-01  -4.41853732e-01
C  31.680134  29.796505  35.869671   3.85495611e-02  -3.81168835e-02   1.30803049e-01
C  31.148647  31.358435  36.333111   7.01705739e-02  -3.05208960e-03   1.42737150e-01
C  30.142529  30.644466  34.529289   3.20389301e-01  -2.83022344e-01   6.42343104e-01
C  30.641703  30.230967  33.503712  -2.01625675e-01   6.72584027e-03  -6.29245520e-01
C  28.915400  31.141373  34.528645  -4.30347800e-01   4.25977290e-01  -2.13681251e-01
C  28.527460  31.530832  35.336098   6.01961732e-01  -4.31359172e-01   1.77719131e-01
C  28.151924  31.139532  33.297024   7.25582009e-03  -3.38001996e-02  -8.62107053e-03
C  28.769466  31.281509  32.445713  -1.39009971e-02  -6.23920709e-02  -2.06043618e-03
C  27.567444  29.716814  33.120434   7.76106417e-02   1.66713700e-01   1.96350608e-02
C  26.717590  29.408812  33.747326  -1.72288790e-02  -7.05398917e-02  -1.63283553e-02
C  27.033779  29.637012  32.166077  -4.68694866e-02  -4.46781069e-02  -2.85935551e-02
C  28.307873  28.943310  33.307819  -4.48018238e-02  -4.56079133e-02   4.16139029e-02
C  27.138357  32.247856  33.371433   1.66442126e-01  -6.18924975e-01  -9.55662608e-01
C  26.811962  32.786259  34.473160  -9.88123417e-01   7.77854800e-01   2.70596814e+00
C  26.427248  32.471352  32.264980   2.83130080e-01   2.41211057e-01   5.26614606e-01
C  26.743635  32.003799  31.430157  -2.32821226e-01  -2.28541195e-01  -2.82506675e-01
C  25.403412  33.558777  32.149940   1.45028144e-01  -5.58499955e-02   2.19408065e-01
C  24.396929  33.178898  32.240456  -9.76877734e-02   4.71989661e-02  -1.30370677e-01
C  25.583038  34.485382  32.835293  -9.08815488e-02   9.12490711e-02  -1.70909435e-01
C  25.432758  33.904057  31.112221  -1.07155323e-01   5.05508855e-02  -1.18771881e-01
44
44
C  34.235455  29.451290  33.938164   2.09404342e-02  -1.77602276e-01   6.04404137e-02
C  34.855797  29.967522  33.190422  -2.08747089e-02   8.15925777e-01   9.53251570e-02
C  35.082355  29.207113  32.449646   5.58115765e-02  -1.73331484e-01  -5.60488403e-02
C  35.803455  30.177319  33.762566   5.34413829e-02  -3.59429687e-01  -1.11356964e-02
C  34.272820  31.288584  32.677528  -6.99771941e-01  -1.32545102e+00  -5.62887728e-01
C  34.841133  32.336464  32.959175   1.92592359e+00   1.87618303e+00   1.34175801e+00
C  33.129475  31.224672  32.015701   1.08347967e-01   3.63595635e-01   2.33380124e-01
C  32.741909  30.327520  31.943508   1.59538910e-01  -1.39241889e-01  -1.28260449e-01
C  32.482124  32.251331  31.141565   3.71637195e-03  -1.46067673e-02  -2.08557900e-02
C  33.303253  32.878250  30.790943  -3.07731889e-02   4.02099045e-04  -1.03451207e-01
C  31.901598  31.467033  29.852877  -7.65364468e-02   1.06591813e-01   1.44513100e-01
C  31.432421  32.258583  29.335581   4.24983464e-02  -5.04261814e-02  -6.19500987e-02
C  32.672562  31.023230  29.235771   2.61916202e-02  -3.41226757e-02  -4.09879051e-02
C  31.133961  30.805864  30.143473   1.04345856e-02  -2.57551521e-02  -5.36431968e-02
C  31.426586  33.058079  31.904156   4.01799172e-01  -2.88177907e-01   3.07085335e-01
C  30.332899  33.106148  31.478323  -4.60707694e-01   1.12188864e+00  -5.75360179e-01
C  31.914841  33.661278  32.969967   2.65346169e-02  -2.29727447e-01  -3.41890961e-01
C  32.886421  33.557941  33.305344  -4.99549985e-01   2.35444650e-01   1.54227450e-01
C  30.927631  34.128433  33.968082  -8.73323381e-02  -1.21631272e-01  -2.02689037e-01
C  30.224239  33.379910  34.250141   1.02923624e-01   4.55576852e-02   9.85023752e-02
C  31.445940  34.405140  34.867439   4.15686555e-02   9.55911502e-02   1.55659825e-01
C  30.393841  35.005249  33.671692   6.92709982e-02   1.24320500e-01   1.54062390e-01
C  30.435698  30.549644  36.615765   8.46709386e-02  -2.48142574e-02   1.46383658e-01
C  31.151295  30.618341  35.809711  -1.99931383e-01   3.28609496e-02  -4.83297497e-01
C  31.871481  29.811054  35.996887   5.39405122e-02  -2.21500769e-02   1.50513068e-01
C  31.735632  31.530617  35.923431   4.77031730e-02   2.03279871e-02   1.70197442e-01
C  30.395418  30.521643  34.438789   2.47584730e-01  -8.15255195e-03   5.83706796e-01
C  30.945601  29.841610  33.463642  -2.58769095e-01  -5.61149955e-01  -6.96908712e-01
C  29.170620  30.896210  34.501019  -3.44373941e-01   2.64710128e-01  -1.17541015e-01
C  28.900703  31.447924  35.335827   5.78978956e-01  -2.94343799e-01   9.50231180e-02
C  28.267029  31.053368  33.379826   2.18412583e-03  -2.50934511e-02  -2.39458419e-02
C  28.882032  31.333746  32.565910  -2.25958321e-02  -4.12707776e-02  -3.32880057e-02
C  27.576160  29.679508  33.086601   1.28199860e-01   1.26354665e-01   1.16657175e-01
C  26.830133  29.389212  33.821487  -3.37618701e-02  -6.67085275e-02  -4.66550104e-02
C  27.103552  29.734104  32.124702  -6.15417995e-02  -2.92076841e-02  -5.24878353e-02
C  28.289755  28.843884  32.968590  -8.23591873e-02  -2.42969561e-02  -7.85575062e-03
C  27.242430  32.135807  33.595905   8.48253667e-02  -5.78403115e-01  -1.35339725e+00
C  26.966520  32.493317  34.790607  -9.27492559e-01   1.27222478e+00   2.95249104e+00
C  26.691063  32.641773  32.454144   4.20053303e-01   1.63886413e-01   6.84963763e-01
C  26.907843  32.235725  31.562960  -3.32092106e-01  -1.79442897e-01  -3.69625181e-01
C  25.596081  33.622044  32.517563   1.94198862e-01  -7.86133483e-02   2.72659153e-01
C  24.692623  33.107178  32.693123  -1.27350479e-01   3.34383100e-02  -1.67646885e-01
C  25.801296  34.372753  33.203289  -1.31522238e-01   1.34084329e-01  -2.17618480e-01
C  25.481388  34.183693  31.594812  -1.25966877e-01   6.91908970e-02  -1.33249298e-01
44
44
C  34.457520  29.757090  34.094780  -1.15872417e-02  -2.04002246e-01   7.70112276e-02
C  34.922783  30.167887  33.248569   1.76227894e-02   8.90536010e-01   8.62989482e-03
C  35.173367  29.466824  32.496986   3.48701552e-02  -2.07441658e-01  -4.30333801e-02
C  35.797440  30.575186  33.718647   4.71473970e-02  -3.90447676e-01   6.46021403e-03
C  34.246914  31.369499  32.617355  -6.25002623e-01  -1.50804985e+00  -3.12259734e-01
C  34.798374  32.461777  32.830902   1.71371472e+00   2.11868763e+00   9.90392148e-01
C  33.180996  31.139513  31.861525   7.19205439e-02   5.93833148e-01   1.58706143e-01
C  32.828682  30.169281  31.823736   1.50003493e-01  -3.11896682e-01  -1.24025635e-01
C  32.468544  32.145023  31.021994   5.26493788e-03  -3.82297002e-02  -1.32993339e-02
C  33.166569  32.824009  30.737160  -9.88385547e-03  -5.75828589e-02  -7.33682588e-02
C  31.964609  31.427088  29.733267  -5.98906204e-02   2.29391694e-01   1.11105025e-01
C  31.454346  32.044399  29.067680   2.89460327e-02  -9.13379714e-02  -5.67079149e-02
C  32.691227  30.793007  29.195957   1.94157809e-02  -6.97098076e-02  -2.77417898e-02
C  31.176966  30.790035  30.111296   3.13367299e-03  -6.97972849e-02  -4.02643308e-02
C  31.424530  32.959435  31.853056   3.45028251e-01  -6.87703431e-01   4.36782598e-01
C  30.439737  33.413918  31.209177  -7.81286359e-01   1.75653303e+00  -1.06573439e+00
C  31.640829  33.190319  33.162903   1.83868073e-02   1.28020957e-01  -4.56704587e-01
C  32.552757  32.885574  33.447105  -3.40662688e-01  -1.32892385e-01   2.60464191e-01
C  30.852867  34.035538  34.041088  -9.21895951e-02  -5.11008687e-02  -2.24147037e-01
C  29.890207  33.466103  34.322998   1.42973840e-01   8.77301767e-03   9.41346362e-02
C  31.434231  34.376194  34.927906   4.37613055e-02   5.38677424e-02   1.69961065e-01
C  30.484747  34.862133  33.471001   7.04236552e-02   7.68566057e-02   1.82074696e-01
C  30.348089  30.151041  36.639297   6.37197271e-02  -7.02941641e-02   1.55551746e-01
C  31.024109  30.270308  35.775398  -1.84165880e-01   1.96380854e-01  -5.18793702e-01
C  31.780167  29.455280  35.689053   4.51260619e-02  -6.39625043e-02   1.58897713e-01
C  31.554663  31.116747  36.092682   6.21489584e-02  -3.06591354e-02   1.75867021e-01
C  30.376808  30.439795  34.394539   2.49873117e-01  -3.11845899e-01   6.58723712e-01
C  30.972502  30.015177  33.418579  -1.87125444e-01  -1.42663449e-01  -6.11821532e-01
C  29.120895  30.836304  34.388664  -3.66560549e-01   5.16796827e-01  -1.64259985e-01
C  28.668520  31.170771  35.231014   5.97090244e-01  -5.68309069e-01   1.55789211e-01
C  28.259138  31.029068  33.145523   1.46033766e-03  -4.36507761e-02  -2.50426400e-02
C  28.943178  31.218699  32.278679  -3.02122775e-02  -8.32760707e-02  -3.40475924e-02
C  27.564230  29.757315  32.792625   1.44538835e-01   2.06781775e-01   1.19539440e-01
C  26.778404  29.561750  33.570679  -4.34298925e-02  -9.99240652e-02  -4.52620760e-02
C  27.102198  29.890467  31.835409  -6.48390800e-02  -5.53607121e-02  -5.66178374e-02
C  28.247242  28.891220  32.828194  -7.97518715e-02  -4.63984609e-02  -3.96415498e-03
C  27.263762  32.186787  33.284775   1.17038451e-01  -8.08357120e-01  -1.52514851e+00
C  27.018927  32.594227  34.453129  -1.50524759e+00   1.21788061e+00   3.71139574e+00
C  26.699451  32.617279  32.203285   4.70107526e-01   3.02367955e-01   7.81744003e-01
C  26.924280  32.091167  31.395023  -3.62230301e-01  -2.84209490e-01  -4.10830706e-01
C  25.899622  33.799458  32.128113   2.20482707e-01  -5.95867150e-02   2.88674325e-01
C  24.882469  33.481712  32.288078  -1.34238765e-01   2.93851458e-02  -1.93527609e-01
C  26.248072  34.426003  32.888546  -1.28166169e-01   1.28825948e-01  -2.23855779e-01
C  25.985220  34.294209  31.099957  -1.63842365e-01   5.66335209e-02  -1.47534594e-01
