44
44
C  34.611355  29.306915  32.962006   5.88522613e-01  -1.08276856e+00   1.43790200e-01
C  34.388237  30.205368  33.475365   1.10429549e+00   2.30094194e+00   2.26225957e-01
C  35.234592  30.350025  34.157017   8.06388199e-01  -6.49613142e-01   3.94674033e-01
C  33.472561  30.006927  34.072697   3.58329743e-01  -1.87491822e+00   1.04734218e+00
C  34.171150  31.377777  32.583542  -4.98639202e+00   3.09944391e-01  -5.36954284e-01
C  35.046505  32.221569  32.354156  -4.14218807e+00   3.39598083e+00   1.32031888e-01
C  32.898045  31.618601  32.214218   1.12406158e+00   8.04070759e+00   2.94375396e+00
C  32.221771  30.980272  32.630089  -9.34450340e+00   1.79546073e-01   1.23574525e-01
C  32.437984  32.745010  31.379221   1.07555315e-02  -7.80117437e-02  -1.75811440e-01
C  33.370377  33.283043  31.036448   2.27181077e+00  -1.65481269e+00   7.01097727e-01
C  31.828051  32.115360  30.178419  -2.34398484e+00   1.05877459e+00  -7.80765533e-01
C  31.668272  32.901737  29.455408  -5.02591193e-01   9.40821767e-01   9.92328525e-01
C  32.584614  31.489059  29.692598  -2.83712804e-01   7.53973544e-01  -2.69064128e-01
C  30.931124  31.593918  30.497087  -3.86393040e-01   1.47796881e+00   8.73867348e-02
C  31.511280  33.613514  32.168495   9.41638470e+00  -4.21226645e+00   1.35463810e+00
C  30.463320  34.042786  31.657347   1.17908525e+00  -6.13882685e+00   3.43695259e+00
C  31.960453  34.050312  33.363556  -9.17675495e-01  -5.76404095e+00  -1.94666457e+00
C  32.765862  33.579720  33.758995   2.08507466e+00  -4.10534799e-01  -2.28598714e+00
C  31.125355  34.817009  34.283875   4.50295210e-03  -1.09072343e-01   1.12554349e-01
C  30.244383  34.266655  34.473476  -4.46244776e-01   1.58776641e-01  -2.20943356e+00
C  31.677183  35.079384  35.199032  -3.48982513e-01  -2.31731564e-01  -1.24702835e+00
C  30.772409  35.739914  33.791836  -3.38260323e-01  -1.55876756e+00  -1.78105342e+00
C  31.369606  29.448217  35.936474   2.94657081e-01  -7.08514333e-01   9.45305288e-01
C  30.634903  30.273409  35.898575   1.45933425e+00  -2.39353821e-01  -2.33540273e+00
C  31.196169  31.103313  36.279007   7.28661537e-01  -1.25295937e-01   1.28098524e+00
C  29.759350  29.995531  36.434097   3.45282882e-01  -1.05028617e+00   1.39369226e+00
C  30.178928  30.511459  34.455074  -7.81329918e+00   6.41693449e+00   2.67178202e+00
C  30.667946  29.903637  33.533794   5.64654922e+00   4.99732733e+00  -4.82520437e+00
C  29.118954  31.287962  34.324238   7.40058422e-01   2.50512123e-01  -1.75257063e+00
C  28.722668  31.814573  35.056618  -8.39483070e+00   1.15968857e+01  -5.77318764e+00
C  28.379269  31.525974  33.071033  -8.04514959e-02   1.16168290e-01  -2.30618119e-01
C  29.150867  31.436737  32.274452   2.08856368e+00  -1.44247663e+00   1.58725178e+00
C  27.368338  30.402878  32.916843  -3.06972051e+00   1.92351627e+00  -1.77707922e+00
C  26.719986  30.464869  33.785603  -4.03234959e-01   9.18385148e-01  -5.00003517e-01
C  26.837915  30.534163  32.033943   7.59552233e-03   6.75536931e-01   3.14745754e-01
C  27.905521  29.432116  32.683113   8.48433971e-02   1.94428846e-01  -3.64403546e-01
C  27.666231  32.888412  33.116177   6.49856758e+00  -2.25826716e+00  -2.52019215e+00
C  27.572588  33.488758  34.208714   3.58764791e+00  -1.07825336e+01   3.25058842e+00
C  27.134617  33.177071  31.916063  -1.44287300e+00  -4.68158245e+00   4.58301258e+00
C  27.283943  32.596973  31.119379   1.53428328e+00   1.06853473e+00   3.25464606e-02
C  26.051207  34.184563  31.804527  -5.94141126e-01  -9.81746614e-03   2.68748969e-01
C  25.164841  33.699181  32.295712   1.65875614e+00  -6.16813228e-02   1.01968896e+00
C  26.302990  35.106838  32.317333   1.39329112e+00  -1.38676667e+00   1.31782877e+00
C  25.865431  34.474899  30.743719   8.22175086e-01  -2.63727307e-01   9.48897600e-01
