44
44
C  34.611355  29.306915  32.962006  -2.03116098e-03  -1.83155225e-03   1.59635954e-03
C  34.388237  30.205368  33.475365   6.74567418e-03   5.97871048e-03  -5.46742138e-03
C  35.234592  30.350025  34.157017  -1.98860909e-03  -1.82445394e-03   1.75029552e-03
C  33.472561  30.006927  34.072697  -2.06925184e-03  -1.77041837e-03   1.68205029e-03
C  34.171150  31.377777  32.583542  -1.13092400e-02  -1.00031663e-02   8.61530565e-03
C  35.046505  32.221569  32.354156   1.02064060e-02   9.14974045e-03  -8.00047163e-03
C  32.898045  31.618601  32.214218   8.02449137e-03   6.88931532e-03  -5.73141687e-03
C  32.221771  30.980272  32.630089  -5.19147934e-03  -4.43014130e-03   3.77358752e-03
C  32.437984  32.745010  31.379221  -6.55010226e-04  -5.42126538e-04   4.14483249e-04
C  33.370377  33.283043  31.036448  -1.56060141e-03  -1.25794252e-03   9.54139745e-04
C  31.828051  32.115360  30.178419   3.65583878e-03   2.97335838e-03  -1.89087819e-03
C  31.668272  32.901737  29.455408  -1.20634888e-03  -9.48852394e-04   5.37053333e-04
C  32.584614  31.489059  29.692598  -1.19028252e-03  -9.79122939e-04   5.93504403e-04
C  30.931124  31.593918  30.497087  -1.23258808e-03  -9.96266608e-04   6.45810156e-04
C  31.511280  33.613514  32.168495  -1.11362692e-02  -9.87240858e-03   7.64692388e-03
C  30.463320  34.042786  31.657347   1.09183379e-02   9.29097272e-03  -6.47715759e-03
C  31.960453  34.050312  33.363556   7.45962653e-03   6.75725052e-03  -5.91347599e-03
C  32.765862  33.579720  33.758995  -4.91874898e-03  -4.40622214e-03   4.10320377e-03
C  31.125355  34.817009  34.283875   2.57514534e-03   2.34395592e-03  -2.16241879e-03
C  30.244383  34.266655  34.473476  -1.67880196e-03  -1.61489821e-03   1.36294868e-03
C  31.677183  35.079384  35.199032  -1.62677723e-03  -1.50906236e-03   1.46811176e-03
C  30.772409  35.739914  33.791836  -1.69956195e-03  -1.41328340e-03   1.33185240e-03
C  31.369606  29.448217  35.936474  -1.90539006e-03  -1.60741492e-03   1.52062764e-03
C  30.634903  30.273409  35.898575   6.16363995e-03   5.46364579e-03  -4.86365240e-03
C  31.196169  31.103313  36.279007  -1.88374356e-03  -1.74118986e-03   1.53579074e-03
C  29.759350  29.995531  36.434097  -1.79437594e-03  -1.62826700e-03   1.37079926e-03
C  30.178928  30.511459  34.455074  -1.06145944e-02  -9.18914191e-03   8.11893493e-03
C  30.667946  29.903637  33.533794   1.05049852e-02   8.58337805e-03  -7.67094642e-03
C  29.118954  31.287962  34.324238   7.26633612e-03   6.76613115e-03  -5.23196906e-03
C  28.722668  31.814573  35.056618  -4.50047432e-03  -4.54497430e-03   3.35476897e-03
C  28.379269  31.525974  33.071033  -6.30338560e-04  -5.51366655e-04   3.71384784e-04
C  29.150867  31.436737  32.274452  -1.62140676e-03  -1.34949398e-03   9.33421019e-04
C  27.368338  30.402878  32.916843   3.26295220e-03   2.74246000e-03  -1.85426977e-03
C  26.719986  30.464869  33.785603  -9.97200026e-04  -9.02896805e-04   5.92203171e-04
C  26.837915  30.534163  32.033943  -1.08924275e-03  -8.94093420e-04   5.74431266e-04
C  27.905521  29.432116  32.683113  -1.09565130e-03  -8.61272216e-04   6.38516387e-04
C  27.666231  32.888412  33.116177  -1.10444110e-02  -1.03914207e-02   6.05303794e-03
C  27.572588  33.488758  34.208714   9.88578796e-03   9.78398789e-03  -6.04809914e-03
C  27.134617  33.177071  31.916063   8.07764381e-03   7.06521887e-03  -3.79881030e-03
C  27.283943  32.596973  31.119379  -5.40904561e-03  -4.53259703e-03   2.45437003e-03
C  26.051207  34.184563  31.804527   2.87198974e-03   2.37979204e-03  -1.20324828e-03
C  25.164841  33.699181  32.295712  -1.74383470e-03  -1.55241310e-03   7.65231380e-04
C  26.302990  35.106838  32.317333  -1.88255077e-03  -1.50489621e-03   8.14396655e-04
C  25.865431  34.474899  30.743719  -1.91187742e-03  -1.51655218e-03   7.40696327e-04
