44
44
C   0.830698 -10.699366 -21.870600
C  -4.223419 -14.156238  41.843639
C  -5.229152   9.260685  -4.631545
C  12.656180   5.354176  -7.054185
C -17.321821  48.036259 -16.027100
C   0.212565 -23.134012   5.052018
C  18.017012 -16.277954  16.639908
C  -5.797130   4.514677 -11.709428
C  54.118126 -35.337124   9.562201
C -29.150438   0.282598  10.216673
C  11.998907   1.748497 -21.705620
C -14.735030   4.003650  -2.941623
C  -8.165490  -7.975941   5.186435
C  -5.253118  -5.370431  -9.577203
C  -7.429189  56.563908  -2.166405
C   5.914970 -10.807423  12.594826
C -13.746704 -20.518381   6.794449
C   2.434660   5.841771  -7.344826
C  14.908819  25.723457 -12.653695
C -18.371571 -14.053497  12.331285
C  -5.225913  -3.963207  -3.907817
C   6.977447  -5.459573   3.310461
C -13.557672   3.426329  -5.381049
C  27.410072 -18.137177 -34.006733
C  -7.336703  16.409021   5.606981
C  -9.372268   0.541918  19.753414
C -10.619202  -4.067418  38.669304
C  21.185459  -2.707108 -13.926528
C -17.614056  11.925514 -39.659241
C   3.785902   3.531080  28.960888
C  41.652538 -12.837870  11.746808
C -19.462378  13.199090   0.311451
C  36.957451 -25.336630  -0.676541
C  -6.177804 -16.465906   1.186785
C -25.190302  10.433405 -24.712648
C -14.647044  20.561600  24.564333
C  20.958855 -32.329823  -7.379249
C  -8.491828   5.775183 -27.344673
C -31.348547  56.557590  21.537588
C   8.377493 -10.541671  -3.215727
C  -3.318288 -19.974260  -6.051013
C   9.952811  17.912743 -14.122151
C   3.550369   0.342814   7.500525
C  -0.374577 -11.424154  14.596863
