44
44
C   1.081616 -10.573665 -21.708412
C  -4.851361 -13.882435  41.733219
C  -5.289072   9.153413  -4.581374
C  13.047862   5.602650  -6.921615
C -16.866243  47.745720 -15.937164
C  -0.028702 -23.053619   5.030213
C  17.265249 -16.333508  16.775997
C  -5.100706   4.837390 -11.715152
C  54.189781 -35.328705   9.445781
C -29.155056   0.138509  10.247990
C  11.624083   1.701591 -21.433483
C -14.469617   3.644783  -2.881454
C  -8.167518  -7.824957   5.245605
C  -5.026361  -5.165095  -9.575605
C  -6.015336  56.481098  -1.799181
C   4.743790 -11.232023  12.612656
C -14.591596 -20.784792   6.405309
C   2.860818   6.066520  -7.071003
C  14.615902  25.493750 -12.835096
C -18.067310 -13.995511  12.373125
C  -5.121636  -3.987798  -3.911050
C   7.171491  -5.500945   3.656288
C -13.388415   3.745138  -5.100925
C  26.762463 -18.311911 -34.716282
C  -7.232508  16.417540   5.584257
C  -9.061525   0.733864  19.813622
C  -9.611004  -3.194441  39.955097
C  19.986755  -3.885147 -15.100973
C -18.399555  11.527523 -40.297646
C   4.397323   3.559466  29.376438
C  41.640354 -12.848458  11.787528
C -19.324873  13.399890   0.370488
C  36.566063 -25.456394  -0.769193
C  -5.689286 -16.289770   1.110774
C -24.711491  10.798647 -24.437880
C -14.623269  21.059355  24.783176
C  22.052452 -31.743605  -7.442749
C  -9.945459   5.318340 -27.263420
C -32.096088  55.928085  21.714838
C   8.959616 -10.057581  -3.413016
C  -3.466639 -20.376150  -5.929332
C  10.434552  18.294235 -14.211412
C   3.594620   0.478867   7.434525
C  -0.186643 -11.181478  14.723785
