44
44
C   0.860364 -10.700911 -21.679707
C  -4.724084 -13.786382  41.670139
C  -5.321662   9.121762  -4.501755
C  12.908248   5.445530  -6.969862
C -17.395630  47.543461 -15.734472
C   0.277413 -22.865316   4.913979
C  17.441694 -16.245716  16.741571
C  -5.227626   4.703470 -11.695094
C  54.213787 -35.297531   9.423504
C -29.325809   0.146841  10.248552
C  11.685350   1.738008 -21.438845
C -14.417695   3.602436  -2.875410
C  -8.252854  -7.851059   5.239338
C  -5.037677  -5.231661  -9.582633
C  -6.141892  56.436558  -1.841931
C   4.820134 -11.384883  12.693386
C -14.504684 -20.799479   6.380386
C   2.768003   6.073274  -7.066226
C  14.625812  25.498484 -12.829359
C -18.068481 -14.005810  12.368958
C  -5.104540  -3.969826  -3.886797
C   7.188406  -5.461287   3.617476
C -13.403114   3.675591  -5.263764
C  26.778954 -18.224178 -34.642513
C  -7.212621  16.428797   5.611144
C  -9.045120   0.703632  19.755161
C  -9.562489  -3.510740  39.790333
C  20.044823  -4.061974 -14.976950
C -18.458769  11.657435 -40.249725
C   4.449233   3.495177  29.353569
C  41.624149 -12.812059  11.791931
C -19.311689  13.362156   0.356829
C  36.515617 -25.427357  -0.756604
C  -5.708270 -16.351662   1.103365
C -24.685474  10.784044 -24.423498
C -14.499290  20.980618  24.780909
C  22.072050 -31.779623  -7.562621
C -10.106359   5.262321 -27.051594
C -32.113483  55.965141  21.763102
C   8.982564 -10.043617  -3.442591
C  -3.452444 -20.362183  -5.932741
C  10.413325  18.282919 -14.221157
C   3.575868   0.465499   7.402822
C  -0.142961 -11.177342  14.708393
