44
44
C   1.045756 -10.553994 -21.746490
C  -4.810687 -13.880177  41.741856
C  -5.320179   9.116522  -4.569088
C  12.997699   5.577098  -6.920527
C -16.997210  47.639931 -15.968266
C   0.211220 -23.116461   4.866616
C  17.361441 -16.373381  16.761669
C  -5.160724   4.805882 -11.723111
C  54.188389 -35.333523   9.427073
C -29.256947   0.218266  10.252817
C  11.668518   1.680344 -21.455566
C -14.474867   3.774768  -2.831306
C  -8.169938  -7.860580   5.256130
C  -4.991475  -5.160474  -9.534737
C  -6.120048  56.689388  -2.005184
C   4.913469 -11.457524  12.766895
C -14.517365 -20.829084   6.484397
C   2.805788   6.087709  -7.098875
C  14.626428  25.500513 -12.802521
C -18.074631 -14.006098  12.370811
C  -5.086663  -3.983627  -3.924774
C   7.207912  -5.481614   3.557929
C -13.388767   3.763460  -5.171884
C  26.771366 -18.294388 -34.680523
C  -7.203489  16.429777   5.600920
C  -9.050123   0.720300  19.814508
C  -9.589691  -3.244303  39.851868
C  20.092951  -4.105194 -15.034822
C -18.416729  11.545403 -40.282486
C   4.449244   3.541133  29.341675
C  41.620304 -12.842231  11.777069
C -19.314318  13.384094   0.380168
C  36.533142 -25.457739  -0.756093
C  -5.705441 -16.332579   1.061123
C -24.716852  10.794077 -24.415186
C -14.570039  21.053671  24.781557
C  22.075356 -31.736456  -7.557469
C -10.134066   5.270737 -26.937790
C -32.174019  55.931038  21.801596
C   8.994247 -10.073395  -3.480477
C  -3.470091 -20.361023  -5.918364
C  10.493602  18.286804 -14.219700
C   3.595295   0.443566   7.436629
C  -0.152964 -11.196248  14.732877
