44
44
C   0.794087 -10.698181 -21.705931
C  -4.714991 -13.851495  41.694439
C  -5.329147   9.169966  -4.557673
C  12.841306   5.396856  -7.042981
C -17.142210  47.668083 -15.819180
C   0.039617 -22.835585   5.027398
C  17.333429 -16.239737  16.686756
C  -5.200264   4.592435 -11.686625
C  54.180733 -35.269234   9.424600
C -29.162859   0.170230  10.266001
C  11.597525   1.752220 -21.466845
C -14.469318   3.701663  -2.836782
C  -8.229838  -7.880269   5.313182
C  -4.981216  -5.396940  -9.550539
C  -5.868485  56.512760  -1.855675
C   4.532839 -11.024158  12.543827
C -14.646729 -20.723696   6.394989
C   2.850427   6.030406  -7.086289
C  14.611978  25.516623 -12.853520
C -18.068624 -14.019431  12.475954
C  -5.102174  -3.997867  -3.967347
C   7.217531  -5.481072   3.575191
C -13.384657   3.648154  -5.291067
C  26.716377 -18.251621 -34.603848
C  -7.192525  16.361059   5.565494
C  -9.043100   0.677297  19.756832
C  -9.236845  -3.495500  39.804214
C  19.835487  -3.633018 -14.912958
C -18.561548  11.720826 -40.331123
C   4.392756   3.687939  29.520529
C  41.706841 -12.736132  11.790415
C -19.119478  13.249851   0.427897
C  36.582474 -25.188776  -0.761779
C  -5.153061 -15.724811   1.295248
C -24.351141  11.080717 -24.392984
C -14.029235  21.737183  24.948372
C  22.531013 -32.895794  -6.245048
C -10.574072   5.719067 -27.550934
C -31.716764  56.369499  22.430826
C   8.904984 -10.101616  -3.881929
C -146.987595 -75.280151  90.397217
C  -0.177126   7.649726  -6.174032
C   1.998116   2.024795   6.234274
C 200.090164 -184.173782 187.806549
