44
44
C  34.611355  29.306915  32.962006   3.47697292e-04  -2.47454533e-04  -2.86603608e-04
C  34.388237  30.205368  33.475365  -8.73826619e-04   1.14486204e-03   1.07116927e-03
C  35.234592  30.350025  34.157017   3.70973808e-04  -2.92441226e-04  -3.84385494e-04
C  33.472561  30.006927  34.072697   2.11229257e-04  -2.37600965e-04  -2.32363178e-04
C  34.171150  31.377777  32.583542   1.72752212e-03  -1.66524353e-03  -1.29286724e-03
C  35.046505  32.221569  32.354156  -4.29551024e-03  -6.54548698e-04   3.13091115e-03
C  32.898045  31.618601  32.214218  -8.44833849e-04   6.43259496e-04   9.80723533e-04
C  32.221771  30.980272  32.630089   3.65928223e-04  -4.82806150e-04  -3.52394854e-04
C  32.437984  32.745010  31.379221   1.02532802e-04  -1.77084748e-05  -6.91456517e-05
C  33.370377  33.283043  31.036448   4.64114913e-04   1.80000847e-04  -2.80318927e-04
C  31.828051  32.115360  30.178419  -6.82831684e-04   2.98072700e-04   5.55580424e-04
C  31.668272  32.901737  29.455408   2.95060658e-04  -8.05046875e-05  -2.27970246e-04
C  32.584614  31.489059  29.692598   2.31502112e-04  -5.15222673e-05  -2.32728504e-04
C  30.931124  31.593918  30.497087   1.70302665e-04  -1.16224561e-04  -1.07837630e-04
C  31.511280  33.613514  32.168495   2.20954185e-03  -6.25639397e-04  -4.90487320e-04
C  30.463320  34.042786  31.657347  -2.11915514e-03   2.47232907e-04   5.41728397e-04
C  31.960453  34.050312  33.363556  -1.26406993e-03  -4.54339810e-04   4.68241808e-04
C  32.765862  33.579720  33.758995   6.42265833e-04   4.93551415e-05  -3.48337053e-04
C  31.125355  34.817009  34.283875  -4.51220374e-04  -2.91906734e-04   4.37360468e-05
C  30.244383  34.266655  34.473476   1.98080772e-04  -3.79723024e-05   3.68942819e-05
C  31.677183  35.079384  35.199032   2.18586647e-04   2.53071048e-04  -1.22411075e-04
C  30.772409  35.739914  33.791836   3.28107912e-04   3.22646345e-04  -1.65231195e-05
C  31.369606  29.448217  35.936474  -9.02436368e-05   7.91124185e-05  -2.89943157e-04
C  30.634903  30.273409  35.898575  -7.87037425e-05   2.94849189e-04   8.53660982e-04
C  31.196169  31.103313  36.279007   2.78929365e-05  -1.23412668e-04  -3.40279803e-04
C  29.759350  29.995531  36.434097   6.16072357e-05  -4.83435870e-05  -3.42088460e-04
C  30.178928  30.511459  34.455074   3.15475743e-04  -9.19284532e-04  -1.04615850e-04
C  30.667946  29.903637  33.533794  -4.34355868e-04   5.28942212e-04   2.43039103e-04
C  29.118954  31.287962  34.324238  -3.14124685e-04   7.60480994e-04   1.91673062e-05
C  28.722668  31.814573  35.056618   4.00761986e-04  -5.21166250e-04  -4.32850531e-04
C  28.379269  31.525974  33.071033   3.42809908e-05  -7.74153086e-05  -9.50263711e-06
C  29.150867  31.436737  32.274452   6.13798693e-05  -2.22837640e-04   3.04663081e-05
C  27.368338  30.402878  32.916843  -4.05419647e-04   1.32962596e-04  -1.69184830e-04
C  26.719986  30.464869  33.785603   1.25396880e-04  -1.12920698e-05   6.52281306e-05
C  26.837915  30.534163  32.033943   1.62197335e-04  -4.14209208e-05   1.35988928e-04
C  27.905521  29.432116  32.683113   1.11128167e-04  -9.50480262e-06   3.51538183e-05
C  27.666231  32.888412  33.116177   8.08333396e-04  -1.57843390e-03   5.62835135e-04
C  27.572588  33.488758  34.208714   6.14130404e-04   3.69018875e-04  -5.26543357e-04
C  27.134617  33.177071  31.916063  -2.52388214e-04   4.88065911e-04  -6.40951213e-04
C  27.283943  32.596973  31.119379   4.06800653e-04  -4.54575231e-04   4.41313168e-04
C  26.051207  34.184563  31.804527   1.09084518e-04  -4.34902759e-05  -2.43014409e-04
C  25.164841  33.699181  32.295712   6.73386530e-05   4.23077363e-05   2.14319953e-04
C  26.302990  35.106838  32.317333  -6.30897048e-05   1.67185091e-04   2.09614169e-04
C  25.865431  34.474899  30.743719   1.76268040e-05   9.81156845e-05   1.28868633e-04
