44
44
C  34.611355  29.306915  32.962006   7.42006395e-03  -7.05017650e-04   3.41525441e-03
C  34.388237  30.205368  33.475365  -2.32298691e-02  -1.06696517e-03  -1.27388053e-02
C  35.234592  30.350025  34.157017   6.13170676e-03   1.98801397e-04   3.15479515e-03
C  33.472561  30.006927  34.072697   9.51498281e-03   7.07704050e-04   5.51295746e-03
C  34.171150  31.377777  32.583542   4.48442735e-02   7.38099171e-03   1.99739169e-02
C  35.046505  32.221569  32.354156  -3.32646668e-02  -5.84783638e-03  -1.45421913e-02
C  32.898045  31.618601  32.214218  -4.24911119e-02  -1.18158776e-02  -2.03810893e-02
C  32.221771  30.980272  32.630089   3.08494437e-02   7.24040112e-03   1.67122222e-02
C  32.437984  32.745010  31.379221   3.25941923e-03   1.04980054e-03   1.45432982e-03
C  33.370377  33.283043  31.036448   6.88803941e-03   2.32793763e-03   2.62599019e-03
C  31.828051  32.115360  30.178419  -2.57210545e-02  -9.49935429e-03  -8.26084986e-03
C  31.668272  32.901737  29.455408   8.42169579e-03   4.01112996e-03   1.98752293e-03
C  32.584614  31.489059  29.692598   8.36180989e-03   2.25477898e-03   1.98201765e-03
C  30.931124  31.593918  30.497087   8.23283568e-03   4.02833475e-03   3.92077910e-03
C  31.511280  33.613514  32.168495   5.52459955e-02   2.47991383e-02   3.04160472e-02
C  30.463320  34.042786  31.657347  -5.74566983e-02  -4.36028354e-02  -3.44745666e-02
C  31.960453  34.050312  33.363556  -2.92112101e-02  -1.36267003e-02  -1.84275955e-02
C  32.765862  33.579720  33.758995   1.86331086e-02   6.66681817e-03   1.10857692e-02
C  31.125355  34.817009  34.283875  -8.71298090e-03  -5.53554483e-03  -7.11383438e-03
C  30.244383  34.266655  34.473476   6.30364707e-03   3.98022076e-03   5.66304661e-03
C  31.677183  35.079384  35.199032   5.12183364e-03   3.09840916e-03   4.03574016e-03
C  30.772409  35.739914  33.791836   5.58453240e-03   4.56500193e-03   4.34584450e-03
C  31.369606  29.448217  35.936474   8.26607551e-03  -2.00562165e-04   8.44484102e-03
C  30.634903  30.273409  35.898575  -2.39665322e-02  -3.28759034e-03  -2.85122301e-02
C  31.196169  31.103313  36.279007   7.44504109e-03   1.72063150e-03   7.88606983e-03
C  29.759350  29.995531  36.434097   4.98016272e-03  -5.75972837e-04   7.70006189e-03
C  30.178928  30.511459  34.455074   2.43752748e-02  -5.11569716e-03   3.09845358e-02
C  30.667946  29.903637  33.533794  -4.78996560e-02  -1.41096665e-02  -5.11610992e-02
C  29.118954  31.287962  34.324238  -2.41688993e-02  -7.42501067e-03  -3.22022103e-02
C  28.722668  31.814573  35.056618   1.15157962e-02   2.12530070e-03   1.94787513e-02
C  28.379269  31.525974  33.071033   2.37834221e-03   1.63294864e-03   3.17538413e-03
C  29.150867  31.436737  32.274452   6.49014069e-03   3.67715070e-03   6.49385666e-03
C  27.368338  30.402878  32.916843  -1.93202030e-02  -1.19145568e-02  -2.53783651e-02
C  26.719986  30.464869  33.785603   4.59923735e-03   2.69793230e-03   8.53791181e-03
C  26.837915  30.534163  32.033943   1.56943614e-04   1.96154506e-04  -1.61021555e-04
C  27.905521  29.432116  32.683113   2.96768174e-03   5.33708546e-04   2.83677154e-03
C  27.666231  32.888412  33.116177   3.26191187e-02   2.03284416e-02   4.56181355e-02
C  27.572588  33.488758  34.208714  -4.38403711e-02  -5.35593592e-02  -6.89507946e-02
C  27.134617  33.177071  31.916063  -3.36792059e-02  -3.88802327e-02  -4.26692963e-02
C  27.283943  32.596973  31.119379   1.06227193e-02   9.19855572e-03   1.09683536e-02
C  26.051207  34.184563  31.804527  -7.85706565e-03  -1.08639840e-02  -1.28689716e-02
C  25.164841  33.699181  32.295712   2.39989464e-03   3.22575611e-03   6.55785669e-03
C  26.302990  35.106838  32.317333   6.57623075e-03   1.25227394e-02   1.00789228e-02
C  25.865431  34.474899  30.743719   3.85489175e-03   5.13845496e-03   5.20067709e-03
