44
44
C  34.611355  29.306915  32.962006  -2.64191162e-03  -1.59969300e-01   5.29568642e-02
C  34.388237  30.205368  33.475365   1.62318811e-01   4.75241274e-01  -3.78167272e-01
C  35.234592  30.350025  34.157017  -6.71040490e-02  -1.76978856e-01   1.65718764e-01
C  33.472561  30.006927  34.072697   1.36309825e-02  -6.32687733e-02   1.44927099e-01
C  34.171150  31.377777  32.583542  -9.06839609e-01  -8.56368780e-01   3.93499076e-01
C  35.046505  32.221569  32.354156   2.06426215e+00   1.31303573e+00  -4.15934861e-01
C  32.898045  31.618601  32.214218   2.87138462e-01   2.30742842e-01  -9.87663418e-02
C  32.221771  30.980272  32.630089  -1.09154116e-02   8.82272609e-03   1.15782835e-01
C  32.437984  32.745010  31.379221  -1.88074373e-02  -2.03936044e-02  -5.86484512e-03
C  33.370377  33.283043  31.036448  -1.09406136e-01  -1.47502394e-02  -5.37900031e-02
C  31.828051  32.115360  30.178419   6.24118485e-02   1.37440413e-01   1.24950647e-01
C  31.668272  32.901737  29.455408   3.78814666e-03  -6.16849437e-02  -5.18211536e-02
C  32.584614  31.489059  29.692598  -1.83065403e-02  -3.90535668e-02  -5.39682284e-02
C  30.931124  31.593918  30.497087  -3.86752076e-02  -3.57028134e-02  -4.49732691e-02
C  31.511280  33.613514  32.168495   8.77370965e-03  -5.20161152e-01   3.45785022e-01
C  30.463320  34.042786  31.657347   1.28546596e-01   1.07446432e+00  -3.82917345e-01
C  31.960453  34.050312  33.363556  -3.82363163e-02   1.16091855e-01  -4.71704125e-01
C  32.765862  33.579720  33.758995  -1.27521962e-01  -3.45742181e-02   4.16547954e-01
C  31.125355  34.817009  34.283875  -1.07180506e-01   7.56928604e-03  -1.73491359e-01
C  30.244383  34.266655  34.473476   1.22891836e-01  -2.94203963e-02   6.84157833e-02
C  31.677183  35.079384  35.199032   7.06064478e-02  -7.30267202e-04   1.24400750e-01
C  30.772409  35.739914  33.791836   6.12641461e-02   3.79711427e-02   1.33376732e-01
C  31.369606  29.448217  35.936474   3.71758193e-02  -2.95494385e-02   1.68937281e-01
C  30.634903  30.273409  35.898575  -6.28481731e-02   1.09760128e-01  -4.83952016e-01
C  31.196169  31.103313  36.279007   5.18807098e-02  -2.66804602e-02   1.34379119e-01
C  29.759350  29.995531  36.434097  -1.08153103e-02  -6.16770126e-02   1.34500742e-01
C  30.178928  30.511459  34.455074  -6.69326708e-02   3.92643781e-03   6.94020510e-01
C  30.667946  29.903637  33.533794   1.06810339e-01  -7.76072681e-01  -8.76128197e-01
C  29.118954  31.287962  34.324238  -3.38887163e-02   3.55297089e-01  -1.74501330e-01
C  28.722668  31.814573  35.056618   2.49309137e-01  -4.78723258e-01   1.37756959e-01
C  28.379269  31.525974  33.071033  -1.71737336e-02  -2.79286560e-02  -2.09951345e-02
C  29.150867  31.436737  32.274452  -6.75360039e-02  -2.34054849e-02  -4.75514755e-02
C  27.368338  30.402878  32.916843   1.89836487e-01   1.08035214e-01   1.09667286e-01
C  26.719986  30.464869  33.785603  -5.06803952e-02  -7.26436973e-02  -2.74207108e-02
C  26.837915  30.534163  32.033943  -7.29162693e-02  -1.87243819e-02  -7.12434873e-02
C  27.905521  29.432116  32.683113  -9.51019749e-02  -6.19549770e-03  -1.12944636e-02
C  27.666231  32.888412  33.116177  -1.04343668e-01  -7.99403667e-01  -1.06480014e+00
C  27.572588  33.488758  34.208714  -8.69126439e-01   1.17982364e+00   2.09398794e+00
C  27.134617  33.177071  31.916063   4.44181114e-01   4.45484102e-01   6.52423382e-01
C  27.283943  32.596973  31.119379  -3.26942295e-01  -3.31458271e-01  -4.29854512e-01
C  26.051207  34.184563  31.804527   2.02685088e-01   9.33921635e-02   2.31389105e-01
C  25.164841  33.699181  32.295712  -1.63551643e-01  -8.39017630e-02  -1.70496032e-01
C  26.302990  35.106838  32.317333  -1.29403576e-01  -2.49222387e-03  -1.66536927e-01
C  25.865431  34.474899  30.743719  -1.25217095e-01  -6.07295856e-02  -9.01012048e-02
