44
44
C  34.611355  29.306915  32.962006   4.64331992e-02  -1.95574492e-01   5.35343103e-02
C  34.388237  30.205368  33.475365   2.14687549e-02   5.06401837e-01  -4.35396165e-01
C  35.234592  30.350025  34.157017  -3.80217768e-02  -1.92429259e-01   1.91144809e-01
C  33.472561  30.006927  34.072697   8.70884582e-02  -5.15917689e-02   1.77541763e-01
C  34.171150  31.377777  32.583542  -8.56836200e-01  -8.27777326e-01   5.07892430e-01
C  35.046505  32.221569  32.354156   2.21595263e+00   1.20078957e+00  -7.36524701e-01
C  32.898045  31.618601  32.214218   1.87192008e-01   1.19840309e-01  -9.50043201e-02
C  32.221771  30.980272  32.630089   1.11672074e-01   1.82885095e-01   1.12551853e-01
C  32.437984  32.745010  31.379221  -1.18014663e-02  -1.27537651e-02  -8.31382070e-03
C  33.370377  33.283043  31.036448  -1.02184512e-01   1.73768923e-02  -6.37625977e-02
C  31.828051  32.115360  30.178419   2.49709040e-02   1.12888344e-01   1.71173736e-01
C  31.668272  32.901737  29.455408   1.75435487e-02  -5.19242398e-02  -7.30978772e-02
C  32.584614  31.489059  29.692598  -7.49301910e-03  -3.84081379e-02  -7.20230788e-02
C  30.931124  31.593918  30.497087  -3.37518193e-02  -2.44243741e-02  -6.07306361e-02
C  31.511280  33.613514  32.168495   2.61376709e-01  -4.77885574e-01   4.60207969e-01
C  30.463320  34.042786  31.657347  -3.83860111e-01   1.53550541e+00  -8.60572755e-01
C  31.960453  34.050312  33.363556  -1.40437320e-01   1.52706914e-02  -5.45947373e-01
C  32.765862  33.579720  33.758995  -6.41244575e-02   4.54202406e-02   4.33586508e-01
C  31.125355  34.817009  34.283875  -1.17354907e-01  -2.46639568e-02  -2.06193060e-01
C  30.244383  34.266655  34.473476   1.05092041e-01  -1.36112077e-02   9.67025012e-02
C  31.677183  35.079384  35.199032   7.57445768e-02   2.42924653e-02   1.27215981e-01
C  30.772409  35.739914  33.791836   7.32348859e-02   6.65258467e-02   1.69682100e-01
C  31.369606  29.448217  35.936474   5.05355000e-02  -2.07021814e-02   2.55985677e-01
C  30.634903  30.273409  35.898575  -2.73569878e-02   3.83511409e-02  -6.85849667e-01
C  31.196169  31.103313  36.279007   4.90434878e-02  -1.39077799e-02   1.72795042e-01
C  29.759350  29.995531  36.434097  -3.24467868e-02  -6.06158674e-02   1.80658475e-01
C  30.178928  30.511459  34.455074  -2.61340648e-01   4.19693768e-01   1.05628121e+00
C  30.667946  29.903637  33.533794   2.95368314e-01  -1.91771257e+00  -1.38383901e+00
C  29.118954  31.287962  34.324238   1.20267354e-01   2.01938286e-01  -2.94612110e-01
C  28.722668  31.814573  35.056618   1.67773813e-01  -3.94746065e-01   1.81561723e-01
C  28.379269  31.525974  33.071033  -3.07272207e-02  -2.06206497e-02  -1.52849825e-02
C  29.150867  31.436737  32.274452  -1.00120075e-01  -5.57863992e-03  -4.63394038e-02
C  27.368338  30.402878  32.916843   2.61122823e-01   9.36248079e-02   1.06788278e-01
C  26.719986  30.464869  33.785603  -6.52513206e-02  -6.47209734e-02  -1.99578088e-02
C  26.837915  30.534163  32.033943  -8.63105729e-02  -2.33788099e-02  -7.27379471e-02
C  27.905521  29.432116  32.683113  -1.41373679e-01  -4.98890039e-03  -2.32555009e-02
C  27.666231  32.888412  33.116177  -3.32441032e-01  -7.18468726e-01  -8.11058521e-01
C  27.572588  33.488758  34.208714  -6.22490168e-01   9.00380492e-01   1.57077324e+00
C  27.134617  33.177071  31.916063   6.14169002e-01   4.55739021e-01   5.56909800e-01
C  27.283943  32.596973  31.119379  -4.23683584e-01  -3.53530109e-01  -4.38475072e-01
C  26.051207  34.184563  31.804527   2.31797770e-01   7.22918287e-02   2.05830500e-01
C  25.164841  33.699181  32.295712  -1.60824299e-01  -7.20595792e-02  -1.40304565e-01
C  26.302990  35.106838  32.317333  -1.52972758e-01   2.26919260e-02  -1.45855829e-01
C  25.865431  34.474899  30.743719  -1.31712288e-01  -4.01951484e-02  -9.88004878e-02
