44
44
C  34.611355  29.306915  32.962006   1.54986256e-03   2.81429035e-04  -7.76088622e-04
C  34.388237  30.205368  33.475365  -5.20531181e-03   4.04877537e-05   4.00596159e-03
C  35.234592  30.350025  34.157017   1.45348127e-03   3.63466243e-04  -1.15558773e-03
C  33.472561  30.006927  34.072697   1.16607046e-03   4.56590322e-04  -9.85521474e-04
C  34.171150  31.377777  32.583542   1.01191634e-02  -2.32314356e-04  -3.14183184e-03
C  35.046505  32.221569  32.354156  -6.50407095e-03  -4.67340834e-03   8.59722216e-03
C  32.898045  31.618601  32.214218  -3.30872601e-03  -1.62852195e-03   5.19559858e-03
C  32.221771  30.980272  32.630089   2.39304290e-03  -5.20552334e-04  -2.31236639e-03
C  32.437984  32.745010  31.379221   3.10316245e-04   1.50542983e-04  -2.21996917e-04
C  33.370377  33.283043  31.036448   1.36012898e-03   4.14462906e-04  -5.66971838e-04
C  31.828051  32.115360  30.178419  -2.07926705e-03  -6.15963130e-04   1.29807612e-03
C  31.668272  32.901737  29.455408   5.86837938e-04   1.55608905e-05  -2.13636114e-04
C  32.584614  31.489059  29.692598   8.40106921e-04   9.88932370e-05  -4.85608296e-04
C  30.931124  31.593918  30.497087   2.38567562e-04  -4.84448128e-06  -1.85060300e-04
C  31.511280  33.613514  32.168495   3.50235077e-03   4.42648726e-03  -3.73889087e-03
C  30.463320  34.042786  31.657347  -1.51711330e-03  -3.56831378e-03   2.54658330e-03
C  31.960453  34.050312  33.363556  -3.09965340e-03  -4.10300866e-03   4.09603398e-03
C  32.765862  33.579720  33.758995   2.72374018e-03   2.49804417e-03  -2.83571915e-03
C  31.125355  34.817009  34.283875  -1.06535258e-03  -1.08919758e-03   1.20562490e-03
C  30.244383  34.266655  34.473476   1.54634647e-04   5.74105303e-04  -9.72320326e-04
C  31.677183  35.079384  35.199032   1.83805794e-04   7.33977358e-04  -5.22111775e-04
C  30.772409  35.739914  33.791836   3.45685810e-04   6.48416637e-04  -6.82898914e-04
C  31.369606  29.448217  35.936474   8.58434592e-04   6.64442894e-04  -9.87067702e-04
C  30.634903  30.273409  35.898575  -2.99166585e-03  -2.04342091e-03   3.34893051e-03
C  31.196169  31.103313  36.279007   7.51887099e-04   2.38607376e-04  -1.06441311e-03
C  29.759350  29.995531  36.434097   5.87821996e-04   5.93802251e-04  -7.75314285e-04
C  30.178928  30.511459  34.455074   5.45803597e-03   2.56101508e-03  -3.51262605e-03
C  30.667946  29.903637  33.533794  -3.38792126e-03  -7.78324320e-04   6.46085385e-03
C  29.118954  31.287962  34.324238  -9.81859630e-04  -2.01630429e-03   3.06909275e-03
C  28.722668  31.814573  35.056618   9.88714746e-04   1.03525934e-03  -1.73297431e-03
C  28.379269  31.525974  33.071033   8.55164253e-05   1.09222143e-04  -3.18825420e-04
C  29.150867  31.436737  32.274452   1.39005540e-04   1.68491926e-04  -6.59713114e-04
C  27.368338  30.402878  32.916843  -4.64681361e-04  -4.07965155e-04   1.60114560e-03
C  26.719986  30.464869  33.785603   1.00347817e-04   2.12993458e-04  -4.05200495e-04
C  26.837915  30.534163  32.033943   1.75477137e-04   2.36784603e-04  -3.01485852e-04
C  27.905521  29.432116  32.683113   2.30231017e-04   2.01997915e-04  -4.12499619e-04
C  27.666231  32.888412  33.116177   3.76176788e-03   3.70540773e-03  -4.90861200e-03
C  27.572588  33.488758  34.208714   5.15076681e-04  -4.65963176e-03   4.98066656e-03
C  27.134617  33.177071  31.916063  -2.33269855e-03  -2.41301535e-03   2.22881837e-03
C  27.283943  32.596973  31.119379   8.29093857e-04   1.81877590e-03  -1.07144017e-03
C  26.051207  34.184563  31.804527  -2.75334925e-04  -4.96888417e-04   6.04272354e-04
C  25.164841  33.699181  32.295712   1.96473091e-04   4.79722046e-04  -2.81610963e-04
C  26.302990  35.106838  32.317333   2.34059378e-04   3.92495160e-04  -2.28538222e-04
C  25.865431  34.474899  30.743719   1.43135563e-04   3.76647949e-04   2.26244920e-05
